**********************************swith analogique ***********************

.SUBCKT 74HC4016 1 2 3 4 5
* 1 ANALOG INPUT
* 2 ANALOG OUTPUT
* 3 CONTROL
* 4 VDD (POSITIVE SUPPLY)
* 5 VSS (NEGATIVE SUPPLY)
*
RINP  3 11 500
CINP 11 5 4P
D1 11 4 D1
D2 5 11 D1
*
M1 12 11 4 4 MP3U L=3U W=10U AD=768P AS=768P PD=208U PS=208U
M2 12 11 5 5 MN3U L=3U W=4U AD=256P AS=256P PD=80U PS=80U
*
M3 13 12 4 4 MP3U L=3U W=30U AD=3600P AS=3600P PD=900U PS=900U
M4 13 12 5 5 MN3U L=3U W=10U AD=1080P AS=1080P PD=286U PS=286U
*
M5 14 13 4 4 MP3U L=3U W=150U AD=256P AS=256P PD=80U PS=80U
M6 14 13 5 5 MN3U L=3U W=50U AD=128P AS=128P PD=48U PS=48U
*TRANSMISSION GATE DEVICES 
M7 2 14 1  4 MP3U L=3U W=1500U AD=4500P AS=4500P PD=3000U PS=3000U
M8 1 13 2 20 MN3U L=3U W=500U  AD=2500P AS=2500P PD=1000U PS=1000U
M9 1 13 20 5 MN3U L=3U W=8U
M10 20  14 5 5 MN3U L=3U  W=8U
M11 20 14 1 4 MP3U L=3U W=32U
*
.MODEL MN3U NMOS LEVEL=3 VTO=1.0 TOX=5E-8 NSUB=1E17 
+XJ=1.5U LD=0.3U KP=40U RD=5 RS=5 CJ=3E-4 CJSW=3E-10
+KAPPA=1 THETA=1E-4 ETA=1.4 GAMMA=1.1 VMAX=4E5
*
.MODEL MP3U PMOS LEVEL=3 VTO=-1.0 TOX=5E-8 NSUB=3E15 
+XJ=0.7U LD=0.3U KP=18U RD=5 RS=5 CJ=1.8E-4 CJSW=2E-10
+KAPPA=.33 THETA=4E-2 ETA=0.6 GAMMA=0.6
.MODEL D1 D IS=923.17E-18 RS=10 CJO=1.0000E-12 M=.3333  VJ=.75
+ ISR=100.00E-12  BV=35.357  IBV=10U  TT=5.0000E-9
*
.ENDS
*$
****************************************************************
.SUBCKT 74HC4066 1 2 3 4 5
* 1 ANALOG INPUT
* 2 ANALOG OUTPUT
* 3 CONTROL
* 4 VDD (POSITIVE SUPPLY)
* 5 VSS (NEGATIVE SUPPLY)
*
RINP  3 11 500
CINP 11 5 4P
D1 11 4 D1
D2 5 11 D1
*
M1 12 11 4 4 MP3U L=3U W=10U AD=768P AS=768P PD=208U PS=208U
M2 12 11 5 5 MN3U L=3U W=4U AD=256P AS=256P PD=80U PS=80U
*
M3 13 12 4 4 MP3U L=3U W=30U AD=3600P AS=3600P PD=900U PS=900U
M4 13 12 5 5 MN3U L=3U W=10U AD=1080P AS=1080P PD=286U PS=286U
*
M5 14 13 4 4 MP3U L=3U W=150U AD=256P AS=256P PD=80U PS=80U
M6 14 13 5 5 MN3U L=3U W=50U AD=128P AS=128P PD=48U PS=48U
*TRANSMISSION GATE DEVICES 
M7 2 14 1  4 MP3U L=3U W=1500U AD=4500P AS=4500P PD=3000U PS=3000U
M8 1 13 2 20 MN3U L=3U W=500U  AD=2500P AS=2500P PD=1000U PS=1000U
M9 1 13 20 5 MN3U L=3U W=8U
M10 20  14 5 5 MN3U L=3U  W=8U
M11 20 14 1 4 MP3U L=3U W=32U
*
.MODEL MN3U NMOS LEVEL=3 VTO=1.0 TOX=5E-8 NSUB=1E17 
+XJ=1.5U LD=0.3U KP=40U RD=5 RS=5 CJ=3E-4 CJSW=3E-10
+KAPPA=1 THETA=1E-4 ETA=1.4 GAMMA=1.1 VMAX=4E5
*
.MODEL MP3U PMOS LEVEL=3 VTO=-1.0 TOX=5E-8 NSUB=3E15 
+XJ=0.7U LD=0.3U KP=18U RD=5 RS=5 CJ=1.8E-4 CJSW=2E-10
+KAPPA=.33 THETA=4E-2 ETA=0.6 GAMMA=0.6
.MODEL D1 D IS=923.17E-18 RS=10 CJO=1.0000E-12 M=.3333  VJ=.75
+ ISR=100.00E-12  BV=35.357  IBV=10U  TT=5.0000E-9
*
.ENDS
*$
****************************************************************
.SUBCKT CD4016A 1 2 3 4 5
* Specifications from RCA (CD4016A) and National Semiconductor data books.
* Nat. Semi. part numbers:  CD4016C, CD4016M
* 1 ANALOG INPUT
* 2 ANALOG OUTPUT
* 3 CONTROL
* 4 VDD (POSITIVE SUPPLY)
* 5 VSS (NEGATIVE SUPPLY)
*
RINPUT  3 11 1500
CRIN 11 5 4.4P
D1 11 4 D1
D2 5 11 D1
*
MP1 12 11 4 4 MP4016A L=8U W=24U  AD=400P AS=400P PD=120U PS=120U
MN1 12 11 5 5 MN4016A L=8U W=8U  AD=128P AS=128P PD=48U PS=48U
*
M3 1 12 2 4  MP4016A L=8U W=360U AD=3600P AS=3600P PD=900U PS=900U
M4 2 11 1 5 MN4016A L=8U W=120U AD=1500P AS=1500P PD=326U PS=326U
*
.MODEL MN4016A NMOS LEVEL=2 VTO=1.45 TOX=1000E-10 NSUB=4.7E16
+XJ=3U LD=2U UO=625 UCRIT=1E5 UEXP=0.45 UTRA=0.25 RD=15 RS=15 
+NEFF=2.5 VMAX=1E6 CGBO=3E-10 CGDO=10E-10 CGSO=10E-10 CJSW=2F
+NFS=4E12  GAMMA=2.2 LAMBDA=0.02
*
.MODEL MP4016A PMOS LEVEL=2 VTO=-1.5 TOX=1000E-10 NSUB=7.6E15
+XJ=3U LD=1.5U UO=225 UCRIT=3E5 UEXP=.5 UTRA=0.25 RD=15 RS=15
+NEFF=2.5 VMAX=1E5 CGBO=3E-10 CGDO=10E-10 CGSO=10E-10 CJSW=1F
+NFS=1E12  GAMMA=1.8 LAMBDA=0.02
*
.MODEL D1 D IS=923.17E-18 RS=10 CJO=1.0000E-12 M=.3333  VJ=.75
+ ISR=100.00E-12  BV=35.357  IBV=10U  TT=5.0000E-9
*
.ENDS
*$
****************************************************************
.SUBCKT CD4016B 1 2 3 4 5
* Specifications Harris data books
* 1 ANALOG INPUT
* 2 ANALOG OUTPUT
* 3 CONTROL
* 4 VDD (POSITIVE SUPPLY)
* 5 VSS (NEGATIVE SUPPLY)
*
RINP  3 11 1500
D1 11 4 D1
D2 5 11 D1
*
M1 12 11 4 4 MP4016A L=8U W=48U  AD=500P AS=500P PD=110U PS=110U
M2 12 11 5 5 MN4016A L=8U W=16U  AD=160P AS=160P PD=48U PS=48U
*
M1A 13 12 4 4 MP4016A L=8U W=96U  AD=500P AS=500P PD=110U PS=110U
M2A 13 12 5 5 MN4016A L=8U W=32U  AD=160P AS=160P PD=48U PS=48U
*
M3 1 12 2 4  MP4016A L=8U W=360U AD=3600P AS=3600P PD=900U PS=900U
M4 2 13 1 5  MN4016A L=8U W=120U AD=1080P AS=1080P PD=286U PS=286U
*
.MODEL MN4016A NMOS LEVEL=2 VTO=1.45 TOX=1000E-10 NSUB=4.7E16
+XJ=3U LD=2U UO=625 UCRIT=1E5 UEXP=0.45 UTRA=0.25 RD=15 RS=15 
+NEFF=2.5 VMAX=1E6 CGBO=3E-10 CGDO=10E-10 CGSO=10E-10 CJSW=2F
+NFS=4E12  GAMMA=2.2 LAMBDA=0.02
*
.MODEL MP4016A PMOS LEVEL=2 VTO=-1.5 TOX=1000E-10 NSUB=7.6E15
+XJ=3U LD=1.5U UO=225 UCRIT=3E5 UEXP=.5 UTRA=0.25 RD=15 RS=15
+NEFF=2.5 VMAX=1E5 CGBO=3E-10 CGDO=10E-10 CGSO=10E-10 CJSW=1F
+NFS=1E12  GAMMA=1.8 LAMBDA=0.02
* 
.MODEL D1 D IS=923.17E-18 RS=10 CJO=1.0000E-12 M=.3333  VJ=.75
+ ISR=100.00E-12  BV=35.357  IBV=10U  TT=5.0000E-9
.ENDS
*$
*
****************************************************************
.SUBCKT DG300 1 2 3 4 5 6
* 1 ANALOG INPUT
* 2 ANALOG OUTPUT
* 3 CONTROL INPUT
* 4 VDD (POSITIVE SUPPLY)
* 5 VSS (NEGATIVE SUPPLY)
* 6 GROUND
*
RINP  3 11 200
CINPUT 11 0 5P
D1 11 4 D1
D2 5 11 D1
*
X1 11 13 4 6 TTLIN/DG300
X2 13 17 19 4 5 6 DRIVER/DG300
X3 17 19 1 2 4 5 OUTPUT/DG300
*
.MODEL D1 D IS=923.17E-18 RS=10 CJO=1.0000E-12 M=.3333  VJ=.75
+ ISR=100.00E-12  BV=35.357  IBV=10U  TT=5.0000E-9
*
.ENDS
*
.SUBCKT TTLIN/DG300 11 43 4 6 
MP1 12 11 4 4 MPDG300 L=32U W=24U    AD=72P AS=72P PD= 20U PS= 20U
MN1 12 11 6 6 MNDG300 L=16U W=500U   AD=5000P AS=5000P PD=500U PS=500U
MP2 13 12 4 4 MPDG300 L=16U W=16U    AD=160P AS=160P PD= 20U PS= 20U
MN2 13 12 6 6 MNDG300 L=16U W=64U   AD=640P AS=640P PD=80U PS=80U
MP3 33 13 4 4 MPDG300 L=16U W=30U    AD=256P AS=256P PD= 80U PS= 80U
MN3 33 13 6 6 MNDG300 L=16U W=10U     AD=128P AS=128P PD=48U PS=48U
MP4 43 33 4 4 MPDG300 L=16U W=150U    AD=1500P AS=1500P PD=320U PS=320U
MN4 43 33 6 6 MNDG300 L=16U W=50U     AD=500P AS=500P PD=48U PS=48U
*
.MODEL MNDG300 NMOS LEVEL=2 VTO=1.2 TOX=1000E-10 NSUB=5E16
+XJ=1.88U LD=2U UO=625 UCRIT=1E5 UEXP=0.45 UTRA=0.25 RD=15 RS=15
+NEFF=2.5 VMAX=2E6 CGBO=3E-10 CGDO=3E-10 CGSO=3E-10 CJSW=1F
+NFS=1E10  RG=10  CJ=3E-4
*
.MODEL MPDG300 PMOS LEVEL=2 VTO=-1.2 TOX=1000E-10 NSUB=5E15 
+XJ=1.5U LD=1.5U UO=225 UCRIT=3E5 UEXP=0.5 UTRA=0.25 RD=15 RS=15
+NEFF=2.5 VMAX=5E4 CGBO=3E-10 CGDO=3E-10 CGSO=3E-10 CJSW=1F
+NFS=1E10  RG=10  CJ=1E-4
*
.ENDS
*
.SUBCKT DRIVER/DG300 13 17 19 4 5 6
MP3 14 13 4 4 MPDG300 L=16U W=96U    AD=900P AS=900P PD=120U PS=120U
MN3 14 13 6 6 MNDG300 L=16U W=32U  AD=320P AS=320P PD=100U PS=100U
*
MP4 15 13 4 4 MPDG300 L=8U W=48U  AD=480P AS=480P PD=120U PS=120U
MP5 16 14 4 4 MPDG300 L=8U W=48U  AD=480P AS=480P PD=120U PS=120U
*
MN4 15 16 5 5 MNDG300 L=30U W=8U   AD=128P AS=128P PD=48U PS=48U
MN5 16 15 5 5 MNDG300 L=30U W=8U   AD=128P AS=128P PD=48U PS=48U
*
MP6 17 15 4 4 MPDG300 L=16U W=360U   AD=2400P AS=2400P PD=500U PS=500U
MN6 17 15 5 5 MNDG300 L=16U W=120U   AD=1200P AS=1200P PD=300U PS=300U
*
MP7 18 16 4 4 MPDG300 L=16U W=360U  AD=2400P AS=2400P PD=500U PS=500U
MN7 18 16 5 5 MNDG300 L=16U W=120U  AD=1200P AS=1200P PD=300U PS=300U
*
MP8 19 17 4 4 MPDG300 L=16U W=360U  AD=2400P AS=2400P PD=500U PS=500U
MN8 19 17 5 5 MNDG300 L=16U W=120U  AD=1200P AS=1200P PD=300U PS=300
*
MP9 28 18 4 4 MPDG300 L=16U W=360U  AD=2400P AS=2400P PD=500U PS=500U
MN9 28 18 5 5 MNDG300 L=16U W=120U  AD=1200P AS=1200P PD=300U PS=300
*
.MODEL MNDG300 NMOS LEVEL=2 VTO=1.2 TOX=1000E-10 NSUB=5E16
+XJ=1.88U LD=2U UO=625 UCRIT=1E5 UEXP=0.45 UTRA=0.25 RD=15 RS=15
+NEFF=2.5 VMAX=2E6 CGBO=3E-10 CGDO=3E-10 CGSO=3E-10 CJSW=1F
+NFS=1E10  RG=10  CJ=3E-4
*
.MODEL MPDG300 PMOS LEVEL=2 VTO=-1.2 TOX=1000E-10 NSUB=5E15 
+XJ=1.5U LD=1.5U UO=225 UCRIT=3E5 UEXP=0.5 UTRA=0.25 RD=15 RS=15
+NEFF=2.5 VMAX=5E4 CGBO=3E-10 CGDO=3E-10 CGSO=3E-10 CJSW=1F
+NFS=1E10  RG=10  CJ=1E-4
*
.ENDS
*
.SUBCKT OUTPUT/DG300  17 19 1 2 4 5
MP1B 2 19 1 4  MPDG300 L=16U W=4000U AD=40N  AS=40N PD=15n PS=15n
MN1B 2 17 1 20 MNDG300 L=16U W=2200U AD=22N  AS=22N PD=7n PS=7n
MN2B 1 17 20 20 MNDG300 L=16U W=64U AD=512P AS=512P PD=120U PS=120U
MN6B 20 19 5 5 MNDG300 L=16U W=30U AD=256P AS=256P PD= 80U PS= 80U
*
.MODEL MNDG300 NMOS LEVEL=2 VTO=1.2 TOX=1000E-10 NSUB=5E16
+XJ=1.88U LD=2U UO=625 UCRIT=1E5 UEXP=0.45 UTRA=0.25 RD=15 RS=15
+NEFF=2.5 VMAX=2E6 CGBO=3E-10 CGDO=3E-10 CGSO=3E-10 CJSW=1F
+NFS=1E10  RG=10  CJ=3E-4
*
.MODEL MPDG300 PMOS LEVEL=2 VTO=-1.2 TOX=1000E-10 NSUB=5E15 
+XJ=1.5U LD=1.5U UO=225 UCRIT=3E5 UEXP=0.5 UTRA=0.25 RD=15 RS=15
+NEFF=2.5 VMAX=5E4 CGBO=3E-10 CGDO=3E-10 CGSO=3E-10 CJSW=1F
+NFS=1E10  RG=10  CJ=1E-4
*
.ENDS
*$
****************************************************************
.SUBCKT DG301 1 2 3 4 5 6 7 8
* 1 ANALOG INPUT #1  (SOURCE)
* 2 ANALOG OUTPUT #1  (DRAIN)
* 3 CONTROL INPUT
* 4 VDD (POSITIVE SUPPLY)
* 5 VSS (NEGATIVE SUPPLY)
* 6 GROUND
* 7 ANALOG INPUT #2
* 8 ANALOG OUTPUT #2
*
RINP  3 11 200
CINPUT 11 0 5P
D1 11 4 D1
D2 5 11 D1
*
X1 11 13 4 6 TTLIN/DG301
X2 13 17 19 18 28 4 5 6 DRIVER2/DG301
X3 17 19 1 2 4 5 OUTPUT/DG301
X4 18 28 7 8 4 5 OUTPUT/DG301
*
.MODEL D1 D IS=923.17E-18 RS=10 CJO=1.0000E-12 M=.3333  VJ=.75
+ ISR=100.00E-12  BV=35.357  IBV=10U  TT=5.0000E-9
*
.ENDS
*
.SUBCKT TTLIN/DG301 11 43 4 6 
MP1 12 11 4 4 MPDG300 L=32U W=24U    AD=72P AS=72P PD= 20U PS= 20U
MN1 12 11 6 6 MNDG300 L=16U W=500U   AD=5000P AS=5000P PD=500U PS=500U
MP2 13 12 4 4 MPDG300 L=16U W=16U    AD=160P AS=160P PD= 20U PS= 20U
MN2 13 12 6 6 MNDG300 L=16U W=64U   AD=640P AS=640P PD=80U PS=80U
MP3 33 13 4 4 MPDG300 L=16U W=30U    AD=256P AS=256P PD= 80U PS= 80U
MN3 33 13 6 6 MNDG300 L=16U W=10U     AD=128P AS=128P PD=48U PS=48U
MP4 43 33 4 4 MPDG300 L=16U W=150U    AD=1500P AS=1500P PD=320U PS=320U
MN4 43 33 6 6 MNDG300 L=16U W=50U     AD=500P AS=500P PD=48U PS=48U
*
.MODEL MNDG300 NMOS LEVEL=2 VTO=1.2 TOX=1000E-10 NSUB=5E16
+XJ=1.88U LD=2U UO=625 UCRIT=1E5 UEXP=0.45 UTRA=0.25 RD=15 RS=15
+NEFF=2.5 VMAX=2E6 CGBO=3E-10 CGDO=3E-10 CGSO=3E-10 CJSW=1F
+NFS=1E10  RG=10  CJ=3E-4
*
.MODEL MPDG300 PMOS LEVEL=2 VTO=-1.2 TOX=1000E-10 NSUB=5E15 
+XJ=1.5U LD=1.5U UO=225 UCRIT=3E5 UEXP=0.5 UTRA=0.25 RD=15 RS=15
+NEFF=2.5 VMAX=5E4 CGBO=3E-10 CGDO=3E-10 CGSO=3E-10 CJSW=1F
+NFS=1E10  RG=10  CJ=1E-4
*
.ENDS
*
.SUBCKT DRIVER2/DG301 13 17 19 18 28 4 5 6
MP3 14 13 4 4 MPDG300 L=16U W=96U    AD=900P AS=900P PD=120U PS=120U
MN3 14 13 6 6 MNDG300 L=16U W=32U  AD=320P AS=320P PD=100U PS=100U
*
MP4 15 13 4 4 MPDG300 L=8U W=48U  AD=480P AS=480P PD=120U PS=120U
MP5 16 14 4 4 MPDG300 L=8U W=48U  AD=480P AS=480P PD=120U PS=120U
*
MN4 15 16 5 5 MNDG300 L=30U W=8U   AD=128P AS=128P PD=48U PS=48U
MN5 16 15 5 5 MNDG300 L=30U W=8U   AD=128P AS=128P PD=48U PS=48U
*
MP6 17 15 4 4 MPDG300 L=16U W=360U   AD=2400P AS=2400P PD=500U PS=500U
MN6 17 15 5 5 MNDG300 L=16U W=120U   AD=1200P AS=1200P PD=300U PS=300U
*
MP7 18 16 4 4 MPDG300 L=16U W=360U  AD=2400P AS=2400P PD=500U PS=500U
MN7 18 16 5 5 MNDG300 L=16U W=120U  AD=1200P AS=1200P PD=300U PS=300U
*
MP8 19 17 4 4 MPDG300 L=16U W=360U  AD=2400P AS=2400P PD=500U PS=500U
MN8 19 17 5 5 MNDG300 L=16U W=120U  AD=1200P AS=1200P PD=300U PS=300
*
MP9 28 18 4 4 MPDG300 L=16U W=360U  AD=2400P AS=2400P PD=500U PS=500U
MN9 28 18 5 5 MNDG300 L=16U W=120U  AD=1200P AS=1200P PD=300U PS=300
*
.MODEL MNDG300 NMOS LEVEL=2 VTO=1.2 TOX=1000E-10 NSUB=5E16
+XJ=1.88U LD=2U UO=625 UCRIT=1E5 UEXP=0.45 UTRA=0.25 RD=15 RS=15
+NEFF=2.5 VMAX=2E6 CGBO=3E-10 CGDO=3E-10 CGSO=3E-10 CJSW=1F
+NFS=1E10  RG=10  CJ=3E-4
*
.MODEL MPDG300 PMOS LEVEL=2 VTO=-1.2 TOX=1000E-10 NSUB=5E15 
+XJ=1.5U LD=1.5U UO=225 UCRIT=3E5 UEXP=0.5 UTRA=0.25 RD=15 RS=15
+NEFF=2.5 VMAX=5E4 CGBO=3E-10 CGDO=3E-10 CGSO=3E-10 CJSW=1F
+NFS=1E10  RG=10  CJ=1E-4
*
.ENDS
*
.SUBCKT OUTPUT/DG301  17 19 1 2 4 5
MP1B 2 19 1 4  MPDG300 L=16U W=4000U AD=40N  AS=40N PD=15n PS=15n
MN1B 2 17 1 20 MNDG300 L=16U W=2200U AD=22N  AS=22N PD=7n PS=7n
MN2B 1 17 20 20 MNDG300 L=16U W=64U AD=512P AS=512P PD=120U PS=120U
MN6B 20 19 5 5 MNDG300 L=16U W=30U AD=256P AS=256P PD= 80U PS= 80U
*		
.MODEL MNDG300 NMOS LEVEL=2 VTO=1.2 TOX=1000E-10 NSUB=5E16
+XJ=1.88U LD=2U UO=625 UCRIT=1E5 UEXP=0.45 UTRA=0.25 RD=15 RS=15
+NEFF=2.5 VMAX=2E6 CGBO=3E-10 CGDO=3E-10 CGSO=3E-10 CJSW=1F
+NFS=1E10  RG=10  CJ=3E-4
*
.MODEL MPDG300 PMOS LEVEL=2 VTO=-1.2 TOX=1000E-10 NSUB=5E15 
+XJ=1.5U LD=1.5U UO=225 UCRIT=3E5 UEXP=0.5 UTRA=0.25 RD=15 RS=15
+NEFF=2.5 VMAX=5E4 CGBO=3E-10 CGDO=3E-10 CGSO=3E-10 CJSW=1F
+NFS=1E10  RG=10  CJ=1E-4
*
.ENDS
*$
****************************************************************
.SUBCKT DG303 1 2 3 4 5 6 7 8
* 1 ANALOG INPUT #1  (SOURCE)
* 2 ANALOG OUTPUT #1  (DRAIN)
* 3 CONTROL INPUT
* 4 VDD (POSITIVE SUPPLY)
* 5 VSS (NEGATIVE SUPPLY)
* 6 GROUND
* 7 ANALOG INPUT #2
* 8 ANALOG OUTPUT #2
*
RINP  3 11 200
CINPUT 11 0 5P
D1 11 4 D1
D2 5 11 D1
*
X1 11 13 4 6 TTLIN/DG303
X2 13 17 19 18 28 4 5 6 DRIVER2/DG303
X3 17 19 1 2 4 5 OUTPUT/DG303
X4 18 28 7 8 4 5 OUTPUT/DG303
*
.MODEL D1 D IS=923.17E-18 RS=10 CJO=1.0000E-12 M=.3333  VJ=.75
+ ISR=100.00E-12  BV=35.357  IBV=10U  TT=5.0000E-9
*
.ENDS
*
.SUBCKT DRIVER2/DG303 13 17 19 18 28 4 5 6
MP3 14 13 4 4 MPDG300 L=16U W=96U    AD=900P AS=900P PD=120U PS=120U
MN3 14 13 6 6 MNDG300 L=16U W=32U  AD=320P AS=320P PD=100U PS=100U
*
MP4 15 13 4 4 MPDG300 L=8U W=48U  AD=480P AS=480P PD=120U PS=120U
MP5 16 14 4 4 MPDG300 L=8U W=48U  AD=480P AS=480P PD=120U PS=120U
*
MN4 15 16 5 5 MNDG300 L=30U W=8U   AD=128P AS=128P PD=48U PS=48U
MN5 16 15 5 5 MNDG300 L=30U W=8U   AD=128P AS=128P PD=48U PS=48U
*
MP6 17 15 4 4 MPDG300 L=16U W=360U   AD=2400P AS=2400P PD=500U PS=500U
MN6 17 15 5 5 MNDG300 L=16U W=120U   AD=1200P AS=1200P PD=300U PS=300U
*
MP7 18 16 4 4 MPDG300 L=16U W=360U  AD=2400P AS=2400P PD=500U PS=500U
MN7 18 16 5 5 MNDG300 L=16U W=120U  AD=1200P AS=1200P PD=300U PS=300U
*
MP8 19 17 4 4 MPDG300 L=16U W=360U  AD=2400P AS=2400P PD=500U PS=500U
MN8 19 17 5 5 MNDG300 L=16U W=120U  AD=1200P AS=1200P PD=300U PS=300
*
MP9 28 18 4 4 MPDG300 L=16U W=360U  AD=2400P AS=2400P PD=500U PS=500U
MN9 28 18 5 5 MNDG300 L=16U W=120U  AD=1200P AS=1200P PD=300U PS=300
*
.MODEL MNDG300 NMOS LEVEL=2 VTO=1.2 TOX=1000E-10 NSUB=5E16
+XJ=1.88U LD=2U UO=625 UCRIT=1E5 UEXP=0.45 UTRA=0.25 RD=15 RS=15
+NEFF=2.5 VMAX=2E6 CGBO=3E-10 CGDO=3E-10 CGSO=3E-10 CJSW=1F
+NFS=1E10  RG=10  CJ=3E-4
*
.MODEL MPDG300 PMOS LEVEL=2 VTO=-1.2 TOX=1000E-10 NSUB=5E15 
+XJ=1.5U LD=1.5U UO=225 UCRIT=3E5 UEXP=0.5 UTRA=0.25 RD=15 RS=15
+NEFF=2.5 VMAX=5E4 CGBO=3E-10 CGDO=3E-10 CGSO=3E-10 CJSW=1F
+NFS=1E10  RG=10  CJ=1E-4
*
.ENDS
*
.SUBCKT OUTPUT/DG303  17 19 1 2 4 5
MP1B 2 19 1 4  MPDG300 L=16U W=4000U AD=40N  AS=40N PD=15n PS=15n
MN1B 2 17 1 20 MNDG300 L=16U W=2200U AD=22N  AS=22N PD=7n PS=7n
MN2B 1 17 20 20 MNDG300 L=16U W=64U AD=512P AS=512P PD=120U PS=120U
MN6B 20 19 5 5 MNDG300 L=16U W=30U AD=256P AS=256P PD= 80U PS= 80U
*
.MODEL MNDG300 NMOS LEVEL=2 VTO=1.2 TOX=1000E-10 NSUB=5E16
+XJ=1.88U LD=2U UO=625 UCRIT=1E5 UEXP=0.45 UTRA=0.25 RD=15 RS=15
+NEFF=2.5 VMAX=2E6 CGBO=3E-10 CGDO=3E-10 CGSO=3E-10 CJSW=1F
+NFS=1E10  RG=10  CJ=3E-4
*
.MODEL MPDG300 PMOS LEVEL=2 VTO=-1.2 TOX=1000E-10 NSUB=5E15 
+XJ=1.5U LD=1.5U UO=225 UCRIT=3E5 UEXP=0.5 UTRA=0.25 RD=15 RS=15
+NEFF=2.5 VMAX=5E4 CGBO=3E-10 CGDO=3E-10 CGSO=3E-10 CJSW=1F
+NFS=1E10  RG=10  CJ=1E-4
*
.ENDS
*
.SUBCKT TTLIN/DG303 11 43 4 6 
MP1 12 11 4 4 MPDG300 L=32U W=24U    AD=72P AS=72P PD= 20U PS= 20U
MN1 12 11 6 6 MNDG300 L=16U W=500U   AD=5000P AS=5000P PD=500U PS=500U
MP2 13 12 4 4 MPDG300 L=16U W=16U    AD=160P AS=160P PD= 20U PS= 20U
MN2 13 12 6 6 MNDG300 L=16U W=64U   AD=640P AS=640P PD=80U PS=80U
MP3 33 13 4 4 MPDG300 L=16U W=30U    AD=256P AS=256P PD= 80U PS= 80U
MN3 33 13 6 6 MNDG300 L=16U W=10U     AD=128P AS=128P PD=48U PS=48U
MP4 43 33 4 4 MPDG300 L=16U W=150U    AD=1500P AS=1500P PD=320U PS=320U
MN4 43 33 6 6 MNDG300 L=16U W=50U     AD=500P AS=500P PD=48U PS=48U
*
.MODEL MNDG300 NMOS LEVEL=2 VTO=1.2 TOX=1000E-10 NSUB=5E16
+XJ=1.88U LD=2U UO=625 UCRIT=1E5 UEXP=0.45 UTRA=0.25 RD=15 RS=15
+NEFF=2.5 VMAX=2E6 CGBO=3E-10 CGDO=3E-10 CGSO=3E-10 CJSW=1F
+NFS=1E10  RG=10  CJ=3E-4
*
.MODEL MPDG300 PMOS LEVEL=2 VTO=-1.2 TOX=1000E-10 NSUB=5E15 
+XJ=1.5U LD=1.5U UO=225 UCRIT=3E5 UEXP=0.5 UTRA=0.25 RD=15 RS=15
+NEFF=2.5 VMAX=5E4 CGBO=3E-10 CGDO=3E-10 CGSO=3E-10 CJSW=1F
+NFS=1E10  RG=10  CJ=1E-4
*
.ENDS
*$
****************************************************************
.SUBCKT DG304 1 2 3 4 5 6
* 1 ANALOG INPUT
* 2 ANALOG OUTPUT
* 3 CONTROL INPUT
* 4 VDD (POSITIVE SUPPLY)
* 5 VSS (NEGATIVE SUPPLY)
* 6 GROUND
*
RINP  3 11 200
CINPUT 11 0 5P
D1 11 4 D1
D2 5 11 D1
*
X1 11 13 4 6 CMOSIN2/DG304
X2 13 17 19 4 5 6 DRIVER/DG304
X3 17 19 1 2 4 5 OUTPUT/DG304
*
.MODEL D1 D IS=923.17E-18 RS=10 CJO=1.0000E-12 M=.3333  VJ=.75
+ ISR=100.00E-12  BV=35.357  IBV=10U  TT=5.0000E-9
*
.ENDS
*
.SUBCKT CMOSIN2/DG304 13 43 4 6 
*
MP3 33 13 4 4 MPDG300 L=6U W=30U    AD=256P AS=256P PD= 80U PS= 80U
MN3 33 13 6 6 MNDG300 L=6U W=10U     AD=128P AS=128P PD=48U PS=48U
MP4 43 33 4 4 MPDG300 L=6U W=150U    AD=1500P AS=1500P PD=320U PS=320U
MN4 43 33 6 6 MNDG300 L=6U W=50U     AD=500P AS=500P PD=48U PS=48U
*
.MODEL MNDG300 NMOS LEVEL=2 VTO=1.2 TOX=1000E-10 NSUB=5E16
+XJ=1.88U LD=2U UO=625 UCRIT=1E5 UEXP=0.45 UTRA=0.25 RD=15 RS=15
+NEFF=2.5 VMAX=2E6 CGBO=3E-10 CGDO=3E-10 CGSO=3E-10 CJSW=1F
+NFS=1E10  RG=10  CJ=3E-4
*
.MODEL MPDG300 PMOS LEVEL=2 VTO=-1.2 TOX=1000E-10 NSUB=5E15 
+XJ=1.5U LD=1.5U UO=225 UCRIT=3E5 UEXP=0.5 UTRA=0.25 RD=15 RS=15
+NEFF=2.5 VMAX=5E4 CGBO=3E-10 CGDO=3E-10 CGSO=3E-10 CJSW=1F
+NFS=1E10  RG=10  CJ=1E-4
*
.ENDS
*
.SUBCKT DRIVER/DG304 13 17 19 4 5 6
MP3 14 13 4 4 MPDG300 L=16U W=96U    AD=900P AS=900P PD=120U PS=120U
MN3 14 13 6 6 MNDG300 L=16U W=32U  AD=320P AS=320P PD=100U PS=100U
*
MP4 15 13 4 4 MPDG300 L=8U W=48U  AD=480P AS=480P PD=120U PS=120U
MP5 16 14 4 4 MPDG300 L=8U W=48U  AD=480P AS=480P PD=120U PS=120U
*
MN4 15 16 5 5 MNDG300 L=30U W=8U   AD=128P AS=128P PD=48U PS=48U
MN5 16 15 5 5 MNDG300 L=30U W=8U   AD=128P AS=128P PD=48U PS=48U
*
MP6 17 15 4 4 MPDG300 L=16U W=360U   AD=2400P AS=2400P PD=500U PS=500U
MN6 17 15 5 5 MNDG300 L=16U W=120U   AD=1200P AS=1200P PD=300U PS=300U
*
MP7 18 16 4 4 MPDG300 L=16U W=360U  AD=2400P AS=2400P PD=500U PS=500U
MN7 18 16 5 5 MNDG300 L=16U W=120U  AD=1200P AS=1200P PD=300U PS=300U
*
MP8 19 17 4 4 MPDG300 L=16U W=360U  AD=2400P AS=2400P PD=500U PS=500U
MN8 19 17 5 5 MNDG300 L=16U W=120U  AD=1200P AS=1200P PD=300U PS=300
*
MP9 28 18 4 4 MPDG300 L=16U W=360U  AD=2400P AS=2400P PD=500U PS=500U
MN9 28 18 5 5 MNDG300 L=16U W=120U  AD=1200P AS=1200P PD=300U PS=300
*
.MODEL MNDG300 NMOS LEVEL=2 VTO=1.2 TOX=1000E-10 NSUB=5E16
+XJ=1.88U LD=2U UO=625 UCRIT=1E5 UEXP=0.45 UTRA=0.25 RD=15 RS=15
+NEFF=2.5 VMAX=2E6 CGBO=3E-10 CGDO=3E-10 CGSO=3E-10 CJSW=1F
+NFS=1E10  RG=10  CJ=3E-4
*
.MODEL MPDG300 PMOS LEVEL=2 VTO=-1.2 TOX=1000E-10 NSUB=5E15 
+XJ=1.5U LD=1.5U UO=225 UCRIT=3E5 UEXP=0.5 UTRA=0.25 RD=15 RS=15
+NEFF=2.5 VMAX=5E4 CGBO=3E-10 CGDO=3E-10 CGSO=3E-10 CJSW=1F
+NFS=1E10  RG=10  CJ=1E-4
*
.ENDS
*
.SUBCKT OUTPUT/DG304  17 19 1 2 4 5
MP1B 2 19 1 4  MPDG300 L=16U W=4000U AD=40N  AS=40N PD=15n PS=15n
MN1B 2 17 1 20 MNDG300 L=16U W=2200U AD=22N  AS=22N PD=7n PS=7n
MN2B 1 17 20 20 MNDG300 L=16U W=64U AD=512P AS=512P PD=120U PS=120U
MN6B 20 19 5 5 MNDG300 L=16U W=30U AD=256P AS=256P PD= 80U PS= 80U
*
.MODEL MNDG300 NMOS LEVEL=2 VTO=1.2 TOX=1000E-10 NSUB=5E16
+XJ=1.88U LD=2U UO=625 UCRIT=1E5 UEXP=0.45 UTRA=0.25 RD=15 RS=15
+NEFF=2.5 VMAX=2E6 CGBO=3E-10 CGDO=3E-10 CGSO=3E-10 CJSW=1F
+NFS=1E10  RG=10  CJ=3E-4
*
.MODEL MPDG300 PMOS LEVEL=2 VTO=-1.2 TOX=1000E-10 NSUB=5E15 
+XJ=1.5U LD=1.5U UO=225 UCRIT=3E5 UEXP=0.5 UTRA=0.25 RD=15 RS=15
+NEFF=2.5 VMAX=5E4 CGBO=3E-10 CGDO=3E-10 CGSO=3E-10 CJSW=1F
+NFS=1E10  RG=10  CJ=1E-4
*
.ENDS
*$
****************************************************************
.SUBCKT DG305 1 2 3 4 5 6 7 8
* 1 ANALOG INPUT #1  (SOURCE)
* 2 ANALOG OUTPUT #1  (DRAIN)
* 3 CONTROL INPUT
* 4 VDD (POSITIVE SUPPLY)
* 5 VSS (NEGATIVE SUPPLY)
* 6 GROUND
* 7 ANALOG INPUT #2
* 8 ANALOG OUTPUT #2
*
RINP  3 11 200
CINPUT 11 0 5P
D1 11 4 D1
D2 5 11 D1
*
X1 11 13 4 6 CMOSIN2/DG305
X2 13 17 19 18 28 4 5 6 DRIVER2/DG305
X3 17 19 1 2 4 5 OUTPUT/DG305
X4 18 28 7 8 4 5 OUTPUT/DG305
*
.MODEL D1 D IS=923.17E-18 RS=10 CJO=1.0000E-12 M=.3333  VJ=.75
+ ISR=100.00E-12  BV=35.357  IBV=10U  TT=5.0000E-9
*
.ENDS
*
.SUBCKT CMOSIN2/DG305 13 43 4 6 
*
MP3 33 13 4 4 MPDG300 L=6U W=30U    AD=256P AS=256P PD= 80U PS= 80U
MN3 33 13 6 6 MNDG300 L=6U W=10U     AD=128P AS=128P PD=48U PS=48U
MP4 43 33 4 4 MPDG300 L=6U W=150U    AD=1500P AS=1500P PD=320U PS=320U
MN4 43 33 6 6 MNDG300 L=6U W=50U     AD=500P AS=500P PD=48U PS=48U
*
.MODEL MNDG300 NMOS LEVEL=2 VTO=1.2 TOX=1000E-10 NSUB=5E16
+XJ=1.88U LD=2U UO=625 UCRIT=1E5 UEXP=0.45 UTRA=0.25 RD=15 RS=15
+NEFF=2.5 VMAX=2E6 CGBO=3E-10 CGDO=3E-10 CGSO=3E-10 CJSW=1F
+NFS=1E10  RG=10  CJ=3E-4
*
.MODEL MPDG300 PMOS LEVEL=2 VTO=-1.2 TOX=1000E-10 NSUB=5E15 
+XJ=1.5U LD=1.5U UO=225 UCRIT=3E5 UEXP=0.5 UTRA=0.25 RD=15 RS=15
+NEFF=2.5 VMAX=5E4 CGBO=3E-10 CGDO=3E-10 CGSO=3E-10 CJSW=1F
+NFS=1E10  RG=10  CJ=1E-4
*
.ENDS
*
.SUBCKT DRIVER2/DG305 13 17 19 18 28 4 5 6
MP3 14 13 4 4 MPDG300 L=16U W=96U    AD=900P AS=900P PD=120U PS=120U
MN3 14 13 6 6 MNDG300 L=16U W=32U  AD=320P AS=320P PD=100U PS=100U
*
MP4 15 13 4 4 MPDG300 L=8U W=48U  AD=480P AS=480P PD=120U PS=120U
MP5 16 14 4 4 MPDG300 L=8U W=48U  AD=480P AS=480P PD=120U PS=120U
*
MN4 15 16 5 5 MNDG300 L=30U W=8U   AD=128P AS=128P PD=48U PS=48U
MN5 16 15 5 5 MNDG300 L=30U W=8U   AD=128P AS=128P PD=48U PS=48U
*
MP6 17 15 4 4 MPDG300 L=16U W=360U   AD=2400P AS=2400P PD=500U PS=500U
MN6 17 15 5 5 MNDG300 L=16U W=120U   AD=1200P AS=1200P PD=300U PS=300U
*
MP7 18 16 4 4 MPDG300 L=16U W=360U  AD=2400P AS=2400P PD=500U PS=500U
MN7 18 16 5 5 MNDG300 L=16U W=120U  AD=1200P AS=1200P PD=300U PS=300U
*
MP8 19 17 4 4 MPDG300 L=16U W=360U  AD=2400P AS=2400P PD=500U PS=500U
MN8 19 17 5 5 MNDG300 L=16U W=120U  AD=1200P AS=1200P PD=300U PS=300
*
MP9 28 18 4 4 MPDG300 L=16U W=360U  AD=2400P AS=2400P PD=500U PS=500U
MN9 28 18 5 5 MNDG300 L=16U W=120U  AD=1200P AS=1200P PD=300U PS=300
*
.MODEL MNDG300 NMOS LEVEL=2 VTO=1.2 TOX=1000E-10 NSUB=5E16
+XJ=1.88U LD=2U UO=625 UCRIT=1E5 UEXP=0.45 UTRA=0.25 RD=15 RS=15
+NEFF=2.5 VMAX=2E6 CGBO=3E-10 CGDO=3E-10 CGSO=3E-10 CJSW=1F
+NFS=1E10  RG=10  CJ=3E-4
*
.MODEL MPDG300 PMOS LEVEL=2 VTO=-1.2 TOX=1000E-10 NSUB=5E15 
+XJ=1.5U LD=1.5U UO=225 UCRIT=3E5 UEXP=0.5 UTRA=0.25 RD=15 RS=15
+NEFF=2.5 VMAX=5E4 CGBO=3E-10 CGDO=3E-10 CGSO=3E-10 CJSW=1F
+NFS=1E10  RG=10  CJ=1E-4
*
.ENDS
*
.SUBCKT OUTPUT/DG305  17 19 1 2 4 5
MP1B 2 19 1 4  MPDG300 L=16U W=4000U AD=40N  AS=40N PD=15n PS=15n
MN1B 2 17 1 20 MNDG300 L=16U W=2200U AD=22N  AS=22N PD=7n PS=7n
MN2B 1 17 20 20 MNDG300 L=16U W=64U AD=512P AS=512P PD=120U PS=120U
MN6B 20 19 5 5 MNDG300 L=16U W=30U AD=256P AS=256P PD= 80U PS= 80U
*
.MODEL MNDG300 NMOS LEVEL=2 VTO=1.2 TOX=1000E-10 NSUB=5E16
+XJ=1.88U LD=2U UO=625 UCRIT=1E5 UEXP=0.45 UTRA=0.25 RD=15 RS=15
+NEFF=2.5 VMAX=2E6 CGBO=3E-10 CGDO=3E-10 CGSO=3E-10 CJSW=1F
+NFS=1E10  RG=10  CJ=3E-4
*
.MODEL MPDG300 PMOS LEVEL=2 VTO=-1.2 TOX=1000E-10 NSUB=5E15 
+XJ=1.5U LD=1.5U UO=225 UCRIT=3E5 UEXP=0.5 UTRA=0.25 RD=15 RS=15
+NEFF=2.5 VMAX=5E4 CGBO=3E-10 CGDO=3E-10 CGSO=3E-10 CJSW=1F
+NFS=1E10  RG=10  CJ=1E-4
*
.ENDS
*$
****************************************************************
.SUBCKT DG307 1 2 3 4 5 6 7 8
* 1 ANALOG INPUT #1  (SOURCE)
* 2 ANALOG OUTPUT #1  (DRAIN)
* 3 CONTROL INPUT
* 4 VDD (POSITIVE SUPPLY)
* 5 VSS (NEGATIVE SUPPLY)
* 6 GROUND
* 7 ANALOG INPUT #2
* 8 ANALOG OUTPUT #2
*
RINP  3 11 200
CINPUT 11 0 5P
D1 11 4 D1
D2 5 11 D1
*
X1 11 13 4 6 CMOSIN2/DG307
X2 13 17 19 18 28 4 5 6 DRIVER2/DG307
X3 17 19 1 2 4 5 OUTPUT/DG307
X4 18 28 7 8 4 5 OUTPUT/DG307
*
.MODEL D1 D IS=923.17E-18 RS=10 CJO=1.0000E-12 M=.3333  VJ=.75
+ ISR=100.00E-12  BV=35.357  IBV=10U  TT=5.0000E-9
*
.ENDS
*
.SUBCKT CMOSIN2/DG307 13 43 4 6 
MP3 33 13 4 4 MPDG300 L=6U W=30U    AD=256P AS=256P PD= 80U PS= 80U
MN3 33 13 6 6 MNDG300 L=6U W=10U     AD=128P AS=128P PD=48U PS=48U
MP4 43 33 4 4 MPDG300 L=6U W=150U    AD=1500P AS=1500P PD=320U PS=320U
MN4 43 33 6 6 MNDG300 L=6U W=50U     AD=500P AS=500P PD=48U PS=48U
*
.MODEL MNDG300 NMOS LEVEL=2 VTO=1.2 TOX=1000E-10 NSUB=5E16
+XJ=1.88U LD=2U UO=625 UCRIT=1E5 UEXP=0.45 UTRA=0.25 RD=15 RS=15
+NEFF=2.5 VMAX=2E6 CGBO=3E-10 CGDO=3E-10 CGSO=3E-10 CJSW=1F
+NFS=1E10  RG=10  CJ=3E-4
*
.MODEL MPDG300 PMOS LEVEL=2 VTO=-1.2 TOX=1000E-10 NSUB=5E15 
+XJ=1.5U LD=1.5U UO=225 UCRIT=3E5 UEXP=0.5 UTRA=0.25 RD=15 RS=15
+NEFF=2.5 VMAX=5E4 CGBO=3E-10 CGDO=3E-10 CGSO=3E-10 CJSW=1F
+NFS=1E10  RG=10  CJ=1E-4
*
.ENDS
*
.SUBCKT DRIVER2/DG307 13 17 19 18 28 4 5 6
MP3 14 13 4 4 MPDG300 L=16U W=96U    AD=900P AS=900P PD=120U PS=120U
MN3 14 13 6 6 MNDG300 L=16U W=32U  AD=320P AS=320P PD=100U PS=100U
*
MP4 15 13 4 4 MPDG300 L=8U W=48U  AD=480P AS=480P PD=120U PS=120U
MP5 16 14 4 4 MPDG300 L=8U W=48U  AD=480P AS=480P PD=120U PS=120U
*
MN4 15 16 5 5 MNDG300 L=30U W=8U   AD=128P AS=128P PD=48U PS=48U
MN5 16 15 5 5 MNDG300 L=30U W=8U   AD=128P AS=128P PD=48U PS=48U
*
MP6 17 15 4 4 MPDG300 L=16U W=360U   AD=2400P AS=2400P PD=500U PS=500U
MN6 17 15 5 5 MNDG300 L=16U W=120U   AD=1200P AS=1200P PD=300U PS=300U
*
MP7 18 16 4 4 MPDG300 L=16U W=360U  AD=2400P AS=2400P PD=500U PS=500U
MN7 18 16 5 5 MNDG300 L=16U W=120U  AD=1200P AS=1200P PD=300U PS=300U
*
MP8 19 17 4 4 MPDG300 L=16U W=360U  AD=2400P AS=2400P PD=500U PS=500U
MN8 19 17 5 5 MNDG300 L=16U W=120U  AD=1200P AS=1200P PD=300U PS=300
*
MP9 28 18 4 4 MPDG300 L=16U W=360U  AD=2400P AS=2400P PD=500U PS=500U
MN9 28 18 5 5 MNDG300 L=16U W=120U  AD=1200P AS=1200P PD=300U PS=300
*
.MODEL MNDG300 NMOS LEVEL=2 VTO=1.2 TOX=1000E-10 NSUB=5E16
+XJ=1.88U LD=2U UO=625 UCRIT=1E5 UEXP=0.45 UTRA=0.25 RD=15 RS=15
+NEFF=2.5 VMAX=2E6 CGBO=3E-10 CGDO=3E-10 CGSO=3E-10 CJSW=1F
+NFS=1E10  RG=10  CJ=3E-4
*
.MODEL MPDG300 PMOS LEVEL=2 VTO=-1.2 TOX=1000E-10 NSUB=5E15 
+XJ=1.5U LD=1.5U UO=225 UCRIT=3E5 UEXP=0.5 UTRA=0.25 RD=15 RS=15
+NEFF=2.5 VMAX=5E4 CGBO=3E-10 CGDO=3E-10 CGSO=3E-10 CJSW=1F
+NFS=1E10  RG=10  CJ=1E-4
*
.ENDS
*
.SUBCKT OUTPUT/DG307  17 19 1 2 4 5
MP1B 2 19 1 4  MPDG300 L=16U W=4000U AD=40N  AS=40N PD=15n PS=15n
MN1B 2 17 1 20 MNDG300 L=16U W=2200U AD=22N  AS=22N PD=7n PS=7n
MN2B 1 17 20 20 MNDG300 L=16U W=64U AD=512P AS=512P PD=120U PS=120U
MN6B 20 19 5 5 MNDG300 L=16U W=30U AD=256P AS=256P PD= 80U PS= 80U
*
.MODEL MNDG300 NMOS LEVEL=2 VTO=1.2 TOX=1000E-10 NSUB=5E16
+XJ=1.88U LD=2U UO=625 UCRIT=1E5 UEXP=0.45 UTRA=0.25 RD=15 RS=15
+NEFF=2.5 VMAX=2E6 CGBO=3E-10 CGDO=3E-10 CGSO=3E-10 CJSW=1F
+NFS=1E10  RG=10  CJ=3E-4
*
.MODEL MPDG300 PMOS LEVEL=2 VTO=-1.2 TOX=1000E-10 NSUB=5E15 
+XJ=1.5U LD=1.5U UO=225 UCRIT=3E5 UEXP=0.5 UTRA=0.25 RD=15 RS=15
+NEFF=2.5 VMAX=5E4 CGBO=3E-10 CGDO=3E-10 CGSO=3E-10 CJSW=1F
+NFS=1E10  RG=10  CJ=1E-4
.ENDS
*$
****************************************************************
.SUBCKT DG381 1 2 3 4 5 6
* 1 ANALOG INPUT
* 2 ANALOG OUTPUT
* 3 CONTROL INPUT
* 4 VDD (POSITIVE SUPPLY)
* 5 VSS (NEGATIVE SUPPLY)
* 6 GROUND
*
RINP  3 11 200
CINPUT 11 0 5P
D1 11 4 D1
D2 5 11 D1
*
X1 11 13 4 6 TTLIN3/DG381
X2 13 17 19 4 5 6 DRIVER/DG381
X3 17 19 1 2 4 5 OUTPUT/DG381
*
.MODEL D1 D IS=923.17E-18 RS=10 CJO=1.0000E-12 M=.3333  VJ=.75
+ ISR=100.00E-12  BV=35.357  IBV=10U  TT=5.0000E-9
*
.ENDS
*
.SUBCKT TTLIN3/DG381 11 53 4 6 
MP1 12 11 4 4 MPDG300 L=32U W=24U    AD=72P AS=72P PD= 20U PS= 20U
MN1 12 11 6 6 MNDG300 L=16U W=500U   AD=5000P AS=5000P PD=500U PS=500U
MP2 13 12 4 4 MPDG300 L=16U W=16U    AD=160P AS=160P PD= 20U PS= 20U
MN2 13 12 6 6 MNDG300 L=16U W=64U   AD=640P AS=640P PD=80U PS=80U
MP3 33 13 4 4 MPDG300 L=16U W=30U    AD=256P AS=256P PD= 80U PS= 80U
MN3 33 13 6 6 MNDG300 L=16U W=10U     AD=128P AS=128P PD=48U PS=48U
MP4 43 33 4 4 MPDG300 L=16U W=150U    AD=1500P AS=1500P PD=320U PS=320U
MN4 43 33 6 6 MNDG300 L=16U W=50U     AD=500P AS=500P PD=48U PS=48U
MP5 53 43 4 4 MPDG300 L=16U W=150U    AD=1500P AS=1500P PD=320U PS=320U
MN5 53 43 6 6 MNDG300 L=16U W=50U     AD=500P AS=500P PD=48U PS=48U
*
.MODEL MNDG300 NMOS LEVEL=2 VTO=1.2 TOX=1000E-10 NSUB=5E16
+XJ=1.88U LD=2U UO=625 UCRIT=1E5 UEXP=0.45 UTRA=0.25 RD=15 RS=15
+NEFF=2.5 VMAX=2E6 CGBO=3E-10 CGDO=3E-10 CGSO=3E-10 CJSW=1F
+NFS=1E10  RG=10  CJ=3E-4
*
.MODEL MPDG300 PMOS LEVEL=2 VTO=-1.2 TOX=1000E-10 NSUB=5E15 
+XJ=1.5U LD=1.5U UO=225 UCRIT=3E5 UEXP=0.5 UTRA=0.25 RD=15 RS=15
+NEFF=2.5 VMAX=5E4 CGBO=3E-10 CGDO=3E-10 CGSO=3E-10 CJSW=1F
+NFS=1E10  RG=10  CJ=1E-4
*
.ENDS
*
.SUBCKT DRIVER/DG381 13 17 19 4 5 6
MP3 14 13 4 4 MPDG300 L=16U W=96U    AD=900P AS=900P PD=120U PS=120U
MN3 14 13 6 6 MNDG300 L=16U W=32U  AD=320P AS=320P PD=100U PS=100U
*
MP4 15 13 4 4 MPDG300 L=8U W=48U  AD=480P AS=480P PD=120U PS=120U
MP5 16 14 4 4 MPDG300 L=8U W=48U  AD=480P AS=480P PD=120U PS=120U
*
MN4 15 16 5 5 MNDG300 L=30U W=8U   AD=128P AS=128P PD=48U PS=48U
MN5 16 15 5 5 MNDG300 L=30U W=8U   AD=128P AS=128P PD=48U PS=48U
*
MP6 17 15 4 4 MPDG300 L=16U W=360U   AD=2400P AS=2400P PD=500U PS=500U
MN6 17 15 5 5 MNDG300 L=16U W=120U   AD=1200P AS=1200P PD=300U PS=300U
*
MP7 18 16 4 4 MPDG300 L=16U W=360U  AD=2400P AS=2400P PD=500U PS=500U
MN7 18 16 5 5 MNDG300 L=16U W=120U  AD=1200P AS=1200P PD=300U PS=300U
*
MP8 19 17 4 4 MPDG300 L=16U W=360U  AD=2400P AS=2400P PD=500U PS=500U
MN8 19 17 5 5 MNDG300 L=16U W=120U  AD=1200P AS=1200P PD=300U PS=300
*
MP9 28 18 4 4 MPDG300 L=16U W=360U  AD=2400P AS=2400P PD=500U PS=500U
MN9 28 18 5 5 MNDG300 L=16U W=120U  AD=1200P AS=1200P PD=300U PS=300
*
.MODEL MNDG300 NMOS LEVEL=2 VTO=1.2 TOX=1000E-10 NSUB=5E16
+XJ=1.88U LD=2U UO=625 UCRIT=1E5 UEXP=0.45 UTRA=0.25 RD=15 RS=15
+NEFF=2.5 VMAX=2E6 CGBO=3E-10 CGDO=3E-10 CGSO=3E-10 CJSW=1F
+NFS=1E10  RG=10  CJ=3E-4
*
.MODEL MPDG300 PMOS LEVEL=2 VTO=-1.2 TOX=1000E-10 NSUB=5E15 
+XJ=1.5U LD=1.5U UO=225 UCRIT=3E5 UEXP=0.5 UTRA=0.25 RD=15 RS=15
+NEFF=2.5 VMAX=5E4 CGBO=3E-10 CGDO=3E-10 CGSO=3E-10 CJSW=1F
+NFS=1E10  RG=10  CJ=1E-4
*
.ENDS
*
.SUBCKT OUTPUT/DG381  17 19 1 2 4 5
MP1B 2 19 1 4  MPDG300 L=16U W=4000U AD=40N  AS=40N PD=15n PS=15n
MN1B 2 17 1 20 MNDG300 L=16U W=2200U AD=22N  AS=22N PD=7n PS=7n