**************************************
*      Model Generated by MODPEX     *
*Copyright(c) Symmetry Design Systems*
*         All Rights Reserved        *
*    UNPUBLISHED LICENSED SOFTWARE   *
*   Contains Proprietary Information *
*      Which is The Property of      *
*     SYMMETRY OR ITS LICENSORS      *
*    Modeling services provided by   *
* Interface Technologies www.i-t.com *
**************************************
.SUBCKT tip127 1 2 3
* Model generated on Dec 26, 2003
* Model format: PSpice
* Darlington macro model
* External node designations
* Node 1 -> Collect
* Node 2 -> Base
* Node 3 -> Emitter
Q1 1 2 4 qmodel
Q2 1 4 3 q1model 2.84905
D1 1 3 dmodel
R1 2 4 10000
R2 4 3 1000
* Default values used in dmodel
*   EG=1.11 TT=0 BV=infinite
.MODEL dmodel d
+IS=1e-12 RS=10 N=1 XTI=3
+CJO=0 VJ=0.75 M=0.33 FC=0.5
.MODEL qmodel pnp
+IS=2.2383e-14 BF=390.271 NF=0.874443 VAF=38.5083
+IKF=0.202108 ISE=1.49947e-10 NE=1.64874 BR=0.1
+NR=1.32278 VAR=134.629 IKR=0.177707 ISC=1.03339e-13
+NC=1.97553 RB=4.89811 IRB=0.200734 RBM=4.89811
+RE=0.089979 RC=0.449895 XTB=0.584937 XTI=2.92881 EG=1.05
+CJE=2.09764e-10 VJE=0.95 MJE=0.23 TF=1e-09
+XTF=1 VTF=10 ITF=0.01 CJC=1.53285e-10
+VJC=0.95 MJC=0.23 XCJC=0.9 FC=0.5
+TR=1e-07 PTF=0 KF=0 AF=1
.MODEL q1model pnp
+IS=2.2383e-14 BF=390.271 NF=0.874443 VAF=38.5083
+IKF=0.202108 ISE=1.49947e-10 NE=1.64874 BR=0.1
+NR=1.32278 VAR=134.629 IKR=0.177707 ISC=1.03339e-13
+NC=1.97553 RB=4.89811 IRB=0.200734 RBM=4.89811
+RE=0.089979 RC=0.449895 XTB=0.584937 XTI=2.92881 EG=1.05
+CJE=2.09764e-10 VJE=0.95 MJE=0.23 TF=1e-09
+XTF=1 VTF=10 ITF=0.01 CJC=0
+VJC=0.95 MJC=0.23 XCJC=0.9 FC=0.5
+TR=1e-07 PTF=0 KF=0 AF=1
.ENDS


* Motorola 100 Volt 15 Amp Darlington Transistor  07/20/98
*
* connections:    Collector
*                 |  Base
*                 |  |  Emitter
*                 |  |  |
.SUBCKT BDW47     1  2  3
*
Q1 1 2 4 Q1model
Q2 1 4 3 Q2model 20
D1 1 3 Dmodel
R1 2 4 8.000E3
R2 4 3 150
.MODEL Dmodel D
+ IS=6.7687E-12
+ N=3.4748
+ RS=1.0000E-3
+ CJO=1.0000E-12
+ M=.3333
+ VJ=.75
+ ISR=100.00E-12
+ BV=120
+ IBV=1.00E-6
+ TT=5.0000E-9
.MODEL Q1model PNP
+  IS=39.06E-15 BF=2.997E3 NF=1 VAF=100
+  IKF=47.58E-3 ISE=3.255E-12 NE=1.522 BR=499.5
+  NR=1 VAR=100 IKR=19.98 ISC=20.38E-6
+  NC=2.997 RB=36.3932 NK=.5957
+  RE=0 RC=2.02607 EG=1.110
+  CJE=149.9E-12 VJE=1.474 MJE=.5197 TF=10.00E-9
+  XTF=1 VTF=10 ITF=10.00E-3 CJC=246.2E-12
+  VJC=1.500 MJC=.2676 XCJC=.9 FC=.5
+  TR=500.00E-6
.MODEL Q2model PNP
+  IS=39.06E-15 BF=2.997E3 NF=1 VAF=100
+  IKF=47.58E-3 ISE=3.255E-12 NE=1.522 BR=499.5
+  NR=1 VAR=100 IKR=19.98 ISC=20.38E-6
+  NC=2.997 RB=36.3932 NK=.5957
+  RE=0 RC=2.02607 EG=1.110
+  CJE=149.9E-12 VJE=1.474 MJE=.5197 TF=10.00E-9
+  XTF=1 VTF=10 ITF=10.00E-3 CJC=0
+  VJC=1.500 MJC=.2676 XCJC=.9 FC=.5
+  TR=500.00E-6
.ENDS


* Motorola 100 Volt 10 Amp Darlington Transistor  07/20/98
*
* connections:    Collector
*                 |  Base
*                 |  |  Emitter
*                 |  |  |
.SUBCKT BDX34C    1  2  3
*
Q1 1 2 4 Q1model
Q2 1 4 3 Q2model 2.351
D1 1 3 Dmodel
R1 2 4 8.000E3
R2 4 3 120
.MODEL Dmodel D
+ IS=409.70E-21
+ N=3.4748
+ RS=1.0000E-3
+ CJO=1.0000E-12
+ M=.3333
+ VJ=.75
+ ISR=100.00E-12
+ BV=120
+ IBV=1.00E-6
+ TT=5.0000E-9
.MODEL Q1model PNP
+  IS=720.5E-15 BF=1.199E3 NF=1 VAF=100
+  IKF=.6553 ISE=26.61E-12 NE=1.505 BR=.1272
+  NR=1 VAR=100 IKR=.9738 ISC=284.1E-12
+  NC=1.738 RB=4.180 NK=.704
+  RE=0 RC=83.63E-3 EG=1.110
+  CJE=152.2E-12 VJE=.7257 MJE=.3782 TF=8.0E-9
+  XTF=1 VTF=10 ITF=10.00E-3 CJC=241.5E-12
+  VJC=2 MJC=.2902 XCJC=.9 FC=.5
+  TR=17.0E-6
.MODEL Q2model PNP
+  IS=720.5E-15 BF=1.199E3 NF=1 VAF=100
+  IKF=.6553 ISE=26.61E-12 NE=1.505 BR=.1272
+  NR=1 VAR=100 IKR=.9738 ISC=284.1E-12
+  NC=1.738 RB=4.180 NK=.704
+  RE=0 RC=83.63E-3 EG=1.110
+  CJE=152.2E-12 VJE=.7257 MJE=.3782 TF=8.0E-9
+  XTF=1 VTF=10 ITF=10.00E-3 CJC=0
+  VJC=2 MJC=.2902 XCJC=.9 FC=.5
+  TR=17.0E-6
.ENDS
*$

*$
* Motorola 100 Volt 8 Amp Darlington Transistor  07/20/98
*
* connections:    Collector
*                 |  Base
*                 |  |  Emitter
*                 |  |  |
.SUBCKT BDX54C    1  2  3
*
Q1 1 2 4 Q1model
Q2 1 4 3 Q2model 2.351
D1 1 3 Dmodel
R1 2 4 8.000E3
R2 4 3 120
.MODEL Dmodel D
+ IS=3.4721E-12
+ N=3.4748
+ RS=1.0000E-3
+ CJO=1.0000E-12
+ M=.3333
+ VJ=.75
+ ISR=100.00E-12
+ BV=120
+ IBV=1.00E-6
+ TT=5.0000E-9
.MODEL Q1model PNP
+  IS=720.5E-15 BF=1.199E3 NF=1 VAF=100
+  IKF=.6553 ISE=26.61E-12 NE=1.505 BR=.1272
+  NR=1 VAR=100 IKR=.9738 ISC=284.1E-12
+  NC=1.738 RB=4.180 NK=.704
+  RE=0 RC=83.63E-3 EG=1.110
+  CJE=152.2E-12 VJE=.7257 MJE=.3782 TF=18.00E-9
+  XTF=1 VTF=10 ITF=10.00E-3 CJC=241.5E-12
+  VJC=2 MJC=.2902 XCJC=.9 FC=.5
+  TR=23.00E-9
.MODEL Q2model PNP
+  IS=720.5E-15 BF=1.199E3 NF=1 VAF=100
+  IKF=.6553 ISE=26.61E-12 NE=1.505 BR=.1272
+  NR=1 VAR=100 IKR=.9738 ISC=284.1E-12
+  NC=1.738 RB=4.180 NK=.704
+  RE=0 RC=83.63E-3 EG=1.110
+  CJE=152.2E-12 VJE=.7257 MJE=.3782 TF=18.00E-9
+  XTF=1 VTF=10 ITF=10.00E-3 CJC=0
+  VJC=2 MJC=.2902 XCJC=.9 FC=.5
+  TR=23.00E-9
.ENDS
*$


*$
* Motorola 250 Volt 30 Amp Darlington Transistor  07/20/98
*
* connections:    Collector
*                 |  Base
*                 |  |  Emitter
*                 |  |  |
.SUBCKT MJ11021   1  2  3
*
Q1 1 2 4 Q1model
Q2 1 4 3 Q2model .5003
D1 1 3 Dmodel
R1 4 2 10.00E3
R2 4 3 8
.MODEL Dmodel D
+ IS=14.710E-12
+ N=3.4748
+ RS=1.0000E-3
+ CJO=1.0000E-12
+ M=.3333
+ VJ=.75
+ ISR=100.00E-12
+ BV=312
+ IBV=1.00E-6
+ TT=5.0000E-9
.MODEL Q1model PNP
+  IS=11.17E-12 BF=2.997E3 NF=1 VAF=100
+  IKF=.8575 ISE=204.3E-12 NE=1.549 BR=.4649
+  NR=1 VAR=100 IKR=10.01E-3 ISC=14.14E-12
+  NC=2.476 RB=0.198862 NK=.6127
+  RE=0 RC=0.0207466 EG=1.110
+  CJE=2.000E-12 VJE=.75 MJE=.33 TF=22.00E-9
+  XTF=1 VTF=10 ITF=10.00E-3 CJC=971.6E-12
+  VJC=.75 MJC=.3333 XCJC=.9 FC=.5
+  TR=8.00E-6
.MODEL Q2model PNP
+  IS=11.17E-12 BF=2.997E3 NF=1 VAF=100
+  IKF=.8575 ISE=204.3E-12 NE=1.549 BR=.4649
+  NR=1 VAR=100 IKR=10.01E-3 ISC=14.14E-12
+  NC=2.476 RB=0.198862 NK=.6127
+  RE=0 RC=0.0207466 EG=1.110
+  CJE=2.000E-12 VJE=.75 MJE=.33 TF=22.00E-9
+  XTF=1 VTF=10 ITF=10.00E-3 CJC=0
+  VJC=.75 MJC=.3333 XCJC=.9 FC=.5
+  TR=8.00E-6
.ENDS

*$
* Motorola 100 Volt 2 Amp Darlington Transistor  07/20/98
*
* connections:    Collector
*                 |  Base
*                 |  |  Emitter
*                 |  |  |
.SUBCKT MJD117    1  2  3
*
Q1 1 2 4 Q1model
Q2 1 4 3 Q2model 1.159
D1 1 3 Dmodel
R1 2 4 8.000E3
R2 4 3 60
.MODEL Dmodel D
+ IS=14.710E-12
+ N=3.4748
+ RS=1.0000E-3
+ CJO=1.0000E-12
+ M=.3333
+ VJ=.75
+ ISR=100.00E-12
+ BV=120
+ IBV=1.00E-6
+ TT=5.0000E-9
.MODEL Q1model PNP
+  IS=830.6E-15 BF=2.997E3 NF=1 VAF=100
+  IKF=10.01E-3 ISE=1.431E-12 NE=1.456 BR=58.66
+  NR=1 VAR=100 IKR=5.461 ISC=907.1E-15
+  NC=2.997 RB=1.02909 NK=.4992
+  RE=0 RC=0.00100208 EG=1.110
+  CJE=48.81E-12 VJE=.9681 MJE=.4151 TF=7.00E-9
+  XTF=1 VTF=10 ITF=10.00E-3 CJC=110.4E-12
+  VJC=1.114 MJC=.2878 XCJC=.9 FC=.5
+  TR=50.00E-9
.MODEL Q2model PNP
+  IS=830.6E-15 BF=2.997E3 NF=1 VAF=100
+  IKF=10.01E-3 ISE=1.431E-12 NE=1.456 BR=58.66
+  NR=1 VAR=100 IKR=5.461 ISC=907.1E-15
+  NC=2.997 RB=1.02909 NK=.4992
+  RE=0 RC=0.00100208 EG=1.110
+  CJE=48.81E-12 VJE=.9681 MJE=.4151 TF=7.00E-9
+  XTF=1 VTF=10 ITF=10.00E-3 CJC=0
+  VJC=1.114 MJC=.2878 XCJC=.9 FC=.5
+  TR=50.00E-9
.ENDS
*$

*$
* Motorola 100 Volt 8 Amp Darlington Transistor  07/20/98
*
* connections:    Collector
*                 |  Base
*                 |  |  Emitter
*                 |  |  |
.SUBCKT MJD127    1  2  3
*
Q1 1 2 4 Q1model
Q2 1 4 3 Q2model .5008
D1 1 3 Dmodel
R1 2 4 8.000E3
R2 4 3 120
.MODEL Dmodel D
+ IS=38.627E-12
+ N=3.8049
+ RS=1.0000E-3
+ CJO=1.0000E-12
+ M=.3333
+ VJ=.75
+ ISR=100.00E-12
+ BV=120
+ IBV=1.00E-6
+ TT=5.0000E-9
.MODEL Q1model PNP
+  IS=86.49E-15 BF=2.997E3 NF=1 VAF=100
+  IKF=.7241 ISE=1.023E-12 NE=1.388 BR=66.27
+  NR=1 VAR=100 IKR=12.30 ISC=456.3E-12
+  NC=1.001 RB=0.513037 NK=.635
+  RE=0 RC=0.00306723 EG=1.110
+  CJE=145.6E-12 VJE=.9688 MJE=.4056 TF=6.50E-9
+  XTF=1 VTF=10 ITF=10.00E-3 CJC=238.5E-12
+  VJC=1.500 MJC=.2431 XCJC=.9 FC=.5
+  TR=800.00E-5
.MODEL Q2model PNP
+  IS=86.49E-15 BF=2.997E3 NF=1 VAF=100
+  IKF=.7241 ISE=1.023E-12 NE=1.388 BR=66.27
+  NR=1 VAR=100 IKR=12.30 ISC=456.3E-12
+  NC=1.001 RB=0.513037 NK=.635
+  RE=0 RC=0.00306723 EG=1.110
+  CJE=145.6E-12 VJE=.9688 MJE=.4056 TF=6.50E-9
+  XTF=1 VTF=10 ITF=10.00E-3 CJC=0
+  VJC=1.500 MJC=.2431 XCJC=.9 FC=.5
+  TR=800.00E-5
.ENDS
*$
***********************************************************
* MJD6036 Darlington Transistor "macromodel" subcircuit
* created using Parts release 8.1 on 12/17/97 at 15:54
* Parts is a Cadence Design Systems product.
*
* connections:    Collector
*                 |  Base
*                 |  |  Emitter
*                 |  |  |
.SUBCKT MJD6036   1  2  3
*
Q1 1 2 4 Q1model
Q2 1 4 3 Q2model .2502
D1 1 3 Dmodel
R1 2 4 8.000E3
R2 4 3 60
.MODEL Dmodel D
+ IS=10.00E-15 RS=1.000E-3 N=1 XTI=3
+  CJO=10.00E-21 VJ=1 M=.5 FC=.5
.MODEL Q1model PNP
+  IS=1.653E-12 BF=1.266E3 NF=1 VAF=100
+  IKF=11.50E-3 ISE=2.216E-12 NE=2.090 BR=1.854
+  NR=1 VAR=100 IKR=4.942 ISC=2.138E-12
+  NC=2.818 RB=.2839 NK=.4306
+  RE=0 RC=0 EG=1.110
+  CJE=51.06E-12 VJE=.505 MJE=.3333 TF=1.8n
+  XTF=10 VTF=10 ITF=1 CJC=110.5E-12
+  VJC=1.014 MJC=.2851 XCJC=.9 FC=.5
+  TR=1.5u
.MODEL Q2model PNP
+  IS=1.653E-12 BF=1.266E3 NF=1 VAF=100
+  IKF=11.50E-3 ISE=2.216E-12 NE=2.090 BR=1.854
+  NR=1 VAR=100 IKR=4.942 ISC=2.138E-12
+  NC=2.818 RB=.2839 NK=.4306
+  RE=0 RC=0 EG=1.110
+  CJE=51.06E-12 VJE=.505 MJE=.3333 TF=1.8n
+  XTF=10 VTF=10 ITF=1 CJC=0
+  VJC=1.014 MJC=.2851 XCJC=.9 FC=.5
+  TR=1.5u
.ENDS
*$
* Motorola 80 Volt 4 Amp Darlington Transistor  07/20/98
*
* connections:    Collector
*                 |  Base
*                 |  |  Emitter
*                 |  |  |
.SUBCKT MJD6039   1  2  3
*
Q1 1 2 4 Q1model
Q2 1 4 3 Q2model .5244
D1 1 3 Dmodel
R1 2 4 8.000E3
R2 4 3 120
.MODEL Dmodel D
+ IS=62.194E-12
+ N=3.9920
+ RS=1.0000E-3
+ CJO=1.0000E-12
+ M=.3333
+ VJ=.75
+ ISR=100.00E-12
+ BV=100
+ IBV=1.00E-6
+ TT=5.0000E-9
.MODEL Q1model PNP
+  IS=270.8E-15 BF=2.997E3 NF=1 VAF=100
+  IKF=.7753 ISE=437.8E-15 NE=1.263 BR=.1001
+  NR=1 VAR=100 IKR=10.01E-3 ISC=623.2E-15
+  NC=2.997 RB=0.336116 NK=.6489
+  RE=0 RC=0.00100742 EG=1.110
+  CJE=40.94E-12 VJE=1.172 MJE=.6816 TF=9.20E-9
+  XTF=1 VTF=10 ITF=10.00E-3 CJC=42.38E-12
+  VJC=.6269 MJC=.1465 XCJC=.9 FC=.5
+  TR=23.000E-6
.MODEL Q2model PNP
+  IS=270.8E-15 BF=2.997E3 NF=1 VAF=100
+  IKF=.7753 ISE=437.8E-15 NE=1.263 BR=.1001
+  NR=1 VAR=100 IKR=10.01E-3 ISC=623.2E-15
+  NC=2.997 RB=0.336116 NK=.6489
+  RE=0 RC=0.00100742 EG=1.110
+  CJE=40.94E-12 VJE=1.172 MJE=.6816 TF=9.20E-9
+  XTF=1 VTF=10 ITF=10.00E-3 CJC=0
+  VJC=.6269 MJC=.1465 XCJC=.9 FC=.5
+  TR=23.000E-6
.ENDS

*$
* Motorola 100 Volt 5 Amp Darlington Transistor  07/20/98
*
* connections:    Collector
*                 |  Base
*                 |  |  Emitter
*                 |  |  |
.SUBCKT MJF127    1  2  3
*
Q1 1 2 4 Q1model
Q2 1 4 3 Q2model 1.523
D1 1 3 Dmodel
R1 2 4 8.000E3
R2 4 3 120
.MODEL Dmodel D
+ IS=2.1341E-12
+ N=3.4748
+ RS=1.0000E-3
+ CJO=1.0000E-12
+ M=.3333
+ VJ=.75
+ ISR=100.00E-12
+ BV=120
+ IBV=1.00E-6
+ TT=5.0000E-9
.MODEL Q1model PNP
+  IS=66.89E-15 BF=1.199E3 NF=1 VAF=100
+  IKF=1.362 ISE=1.531E-12 NE=1.404 BR=4.456
+  NR=1 VAR=100 IKR=1.001E-3 ISC=66.89E-15
+  NC=1.025 RB=2.444 NK=.7378
+  RE=0 RC=0 EG=1.110
+  CJE=145.6E-12 VJE=.9688 MJE=.4056 TF=7.000E-9
+  XTF=1 VTF=10 ITF=10.00E-3 CJC=237.5E-12
+  VJC=2 MJC=.2772 XCJC=.9 FC=.5
+  TR=2.400E-6
.MODEL Q2model PNP
+  IS=66.89E-15 BF=1.199E3 NF=1 VAF=100
+  IKF=1.362 ISE=1.531E-12 NE=1.404 BR=4.456
+  NR=1 VAR=100 IKR=1.001E-3 ISC=66.89E-15
+  NC=1.025 RB=2.444 NK=.7378
+  RE=0 RC=0 EG=1.110
+  CJE=145.6E-12 VJE=.9688 MJE=.4056 TF=7.000E-9
+  XTF=1 VTF=10 ITF=10.00E-3 CJC=0
+  VJC=2 MJC=.2772 XCJC=.9 FC=.5
+  TR=2.400E-6
.ENDS
*$
* mjf6287 Darlington Transistor "macromodel" subcircuit
* Manufacturer MOTOROLA
* DATE 04/24/01
* Modeled at PSpice-ITeam nikkel
*
* connections:    Collector
*                 |  Base
*                 |  |  Emitter
*                 |  |  |
.SUBCKT mjf6287  1  2  3
*
Q1 1 2 4 Q1model
Q2 1 4 3 Q2model .934
D1 1 3 Dmodel
R1 2 4 8.000E3
R2 4 3 50
.MODEL Dmodel D
+ IS=10.00E-15 RS=1.000E-3 N=1 XTI=3
+  CJO=10.00E-21 VJ=1 M=.5 FC=.5
.MODEL Q1model PNP
+  IS=306.6E-15 BF=1.199E3 NF=1 VAF=100
+  IKF=1.425 ISE=4.663E-12 NE=1.375 BR=.1001
+  NR=1 VAR=100 IKR=1.486 ISC=17.04E-12
+  NC=1.585 RB=.5188 NK=.5752
+  RE=0 RC=83.90E-3 EG=1.110
+  CJE=10.00E-12 VJE=.75 MJE=.33 TF=2.419e-9
+  XTF=1 VTF=10 ITF=10.00E-3 CJC=1.457E-9
+  VJC=.75 MJC=.3333 XCJC=.9 FC=.5
+  TR=15.20E-6
.MODEL Q2model PNP
+  IS=306.6E-15 BF=1.199E3 NF=1 VAF=100
+  IKF=1.425 ISE=4.663E-12 NE=1.375 BR=.1001
+  NR=1 VAR=100 IKR=1.486 ISC=17.04E-12
+  NC=1.585 RB=.5188 NK=.5752
+  RE=0 RC=83.90E-3 EG=1.110
+  CJE=10.00E-12 VJE=.75 MJE=.33 TF=2.419e-9
+  XTF=1 VTF=10 ITF=10.00E-3 CJC=0
+  VJC=.75 MJC=.3333 XCJC=.9 FC=.5
+  TR=15.20E-6
.ENDS

*$
* Motorola 100 Volt 10 Amp Darlington Transistor  07/20/98
*
* connections:    Collector
*                 |  Base
*                 |  |  Emitter
*                 |  |  |
.SUBCKT MJF6668   1  2  3
*
Q1 1 2 4 Q1model
Q2 1 4 3 Q2model 1.523
D1 1 3 Dmodel
R1 2 4 8.000E3
R2 4 3 120
.MODEL Dmodel D
+ IS=4.3887E-12
+ N=3.4748
+ RS=1.0000E-3
+ CJO=1.0000E-12
+ M=.3333
+ VJ=.75
+ ISR=100.00E-12
+ BV=120
+ IBV=1.00E-6
+ TT=5.0000E-9
.MODEL Q1model PNP
+  IS=66.89E-15 BF=1.199E3 NF=1 VAF=100
+  IKF=1.362 ISE=1.531E-12 NE=1.404 BR=4.456
+  NR=1 VAR=100 IKR=1.001E-3 ISC=66.89E-15
+  NC=1.025 RB=2.444 NK=.7378
+  RE=0 RC=0 EG=1.110
+  CJE=179.5E-12 VJE=2 MJE=.7229 TF=15.000E-9
+  XTF=1 VTF=10 ITF=10.00E-3 CJC=221.3E-12
+  VJC=.136 MJC=.1836 XCJC=.9 FC=.5
+  TR=800.000E-9
.MODEL Q2model PNP
+  IS=66.89E-15 BF=1.199E3 NF=1 VAF=100
+  IKF=1.362 ISE=1.531E-12 NE=1.404 BR=4.456
+  NR=1 VAR=100 IKR=1.001E-3 ISC=66.89E-15
+  NC=1.025 RB=2.444 NK=.7378
+  RE=0 RC=0 EG=1.110
+  CJE=179.5E-12 VJE=2 MJE=.7229 TF=15.000E-9
+  XTF=1 VTF=10 ITF=10.00E-3 CJC=0
+  VJC=.136 MJC=.1836 XCJC=.9 FC=.5
+  TR=800.000E-9
.ENDS
*$
* Motorola 250 Volt 15 Amp Darlington Transistor  07/20/98
*
* connections:    Collector
*                 |  Base
*                 |  |  Emitter
*                 |  |  |
.SUBCKT MJH11021  1  2  3
*
Q1 1 2 4 Q1model
Q2 1 4 3 Q2model 20
D1 1 3 Dmodel
R1 2 4 8.000E3
R2 4 3 50
.MODEL Dmodel D
+ IS=6.7687E-12
+ N=3.4748
+ RS=1.0000E-3
+ CJO=1.0000E-12
+ M=.3333
+ VJ=.75
+ ISR=100.00E-12
+ BV=312
+ IBV=1.00E-6
+ TT=5.0000E-9
.MODEL Q1model PNP
+  IS=52.72E-15 BF=1.655E3 NF=1 VAF=100
+  IKF=.5202 ISE=696.1E-15 NE=1.294 BR=.3742
+  NR=1 VAR=100 IKR=9.675 ISC=98.81E-15
+  NC=1.924 RB=5.28724 NK=.6829
+  RE=0 RC=1.28027 EG=1.110
+  CJE=2.000E-12 VJE=.75 MJE=.33 TF=15.00E-9
+  XTF=1 VTF=10 ITF=10.00E-3 CJC=1.457E-9
+  VJC=.75 MJC=.3333 XCJC=.9 FC=.5
+  TR=1.20E-5
.MODEL Q2model PNP
+  IS=52.72E-15 BF=1.655E3 NF=1 VAF=100
+  IKF=.5202 ISE=696.1E-15 NE=1.294 BR=.3742
+  NR=1 VAR=100 IKR=9.675 ISC=98.81E-15
+  NC=1.924 RB=5.28724 NK=.6829
+  RE=0 RC=1.28027 EG=1.110
+  CJE=2.000E-12 VJE=.75 MJE=.33 TF=15.00E-9
+  XTF=1 VTF=10 ITF=10.00E-3 CJC=0
+  VJC=.75 MJC=.3333 XCJC=.9 FC=.5
+  TR=1.20E-5
.ENDS
*$

*$
* Motorola 100 Volt 20 Amp Darlington Transistor  07/20/98
*
* connections:    Collector
*                 |  Base
*                 |  |  Emitter
*                 |  |  |
.SUBCKT MJH6287   1  2  3
*
Q1 1 2 4 Q1model
Q2 1 4 3 Q2model 1.140
D1 1 3 Dmodel
R1 2 4 8.000E3
R2 4 3 50
.MODEL Dmodel D
+ IS=20.046E-12
+ N=3.5742
+ RS=1.0000E-3
+ CJO=1.0000E-12
+ M=.3333
+ VJ=.75
+ ISR=100.00E-12
+ BV=120
+ IBV=1.00E-6
+ TT=5.0000E-9
.MODEL Q1model PNP
+  IS=277.1E-15 BF=2.997E3 NF=1 VAF=100
+  IKF=1.763 ISE=7.961E-12 NE=1.410 BR=5.213
+  NR=1 VAR=100 IKR=9.136 ISC=34.73E-12
+  NC=1.144 RB=.4787 NK=.636
+  RE=0 RC=0 EG=1.110
+  CJE=2.000E-12 VJE=.75 MJE=.33 TF=11.00E-9
+  XTF=1 VTF=10 ITF=10.00E-3 CJC=1.457E-9
+  VJC=.75 MJC=.3333 XCJC=.9 FC=.5
+  TR=8.00E-6
.MODEL Q2model PNP
+  IS=277.1E-15 BF=2.997E3 NF=1 VAF=100
+  IKF=1.763 ISE=7.961E-12 NE=1.410 BR=5.213
+  NR=1 VAR=100 IKR=9.136 ISC=34.73E-12
+  NC=1.144 RB=.4787 NK=.636
+  RE=0 RC=0 EG=1.110
+  CJE=2.000E-12 VJE=.75 MJE=.33 TF=11.00E-9
+  XTF=1 VTF=10 ITF=10.00E-3 CJC=0
+  VJC=.75 MJC=.3333 XCJC=.9 FC=.5
+  TR=8.00E-6
.ENDS
*$

***********************************************************
* MPSA64 Darlington Transistor "macromodel" subcircuit
* created using Parts release 8.1 on 01/07/98 at 15:06
* Parts is an Cadence Design Systems product.
*
* connections:    Collector
*                 |  Base
*                 |  |  Emitter
*                 |  |  |
.SUBCKT MPSA64    1  2  3
*
Q1 1 2 4 Q1model
Q2 1 4 3 Q2model 0.807561
*D1 1 3 Dmodel
R1 2 4 2G
R2 4 3 2G
.MODEL Dmodel D
+ IS=10.00E-15 RS=1.000E-3 N=1 XTI=3
+  CJO=10.00E-21 VJ=1 M=.5 FC=.5
.MODEL Q1model PNP
+  IS=1.152217e-014 BF=295.916 NF=1 VAF=100
+  IKF=4.152566e-001 ISE=1.018001e-013 NE=1.54779 BR=1.91325
+  NR=1 VAR=100 IKR=0.358632 ISC=1.81264p
+  NC=1.26296 RB=5.62906 NK=0.8621
+  RE=0 RC=1.78532 EG=1.110
+  CJE=2.000E-12 VJE=.75 MJE=.33 TF=1n
+  XTF=10 VTF=10 ITF=1 CJC=2.000E-12
+  VJC=.75 MJC=.33 XCJC=.9 FC=.5
+  TR=1n
.MODEL Q2model PNP
+  IS=1.152217e-014 BF=295.916 NF=1 VAF=100
+  IKF=4.152566e-001 ISE=1.018001e-013 NE=1.54779 BR=1.91325
+  NR=1 VAR=100 IKR=0.358632 ISC=1.81264p
+  NC=1.26296 RB=5.62906 NK=0.8621
+  RE=0 RC=1.78532 EG=1.110
+  CJE=2.000E-12 VJE=.75 MJE=.33 TF=1n
+  XTF=10 VTF=10 ITF=1 CJC=0
+  VJC=.75 MJC=.33 XCJC=.9 FC=.5
+  TR=1n
.ENDS
*$
***********************************************************
* MPSA77 Darlington Transistor "macromodel" subcircuit
* created using Parts release 8.1 on 01/13/98 at 10:42
* Parts is an Cadence Design Systems product.
*
* connections:    Collector
*                 |  Base
*                 |  |  Emitter
*                 |  |  |
.SUBCKT MPSA77    1  2  3
*
Q1 1 2 4 Q1model
Q2 1 4 3 Q2model 4.004
D1 1 3 Dmodel
R1 2 4 100.0E6
R2 4 3 100.0E6
.MODEL Dmodel D
+ IS=10.00E-15 RS=1.000E-3 N=1 XTI=3
+  CJO=10.00E-21 VJ=1 M=.5 FC=.5
.MODEL Q1model PNP
+  IS=9.656E-15 BF=273.8 NF=1 VAF=100
+  IKF=81.86E-3 ISE=1.419E-12 NE=1.998 BR=69.08
+  NR=1 VAR=100 IKR=.3535 ISC=51.69E-12
+  NC=1.300 RB=1.814 NK=.8466
+  RE=0 RC=26.32E-3 EG=1.110
+  CJE=2.000E-12 VJE=.75 MJE=.33 TF=10.00E-9
+  XTF=10 VTF=10 ITF=1 CJC=2.000E-12
+  VJC=.75 MJC=.33 XCJC=.9 FC=.5
+  TR=10.00E-9
.MODEL Q2model PNP
+  IS=9.656E-15 BF=273.8 NF=1 VAF=100
+  IKF=81.86E-3 ISE=1.419E-12 NE=1.998 BR=69.08
+  NR=1 VAR=100 IKR=.3535 ISC=51.69E-12
+  NC=1.300 RB=1.814 NK=.8466
+  RE=0 RC=26.32E-3 EG=1.110
+  CJE=2.000E-12 VJE=.75 MJE=.33 TF=10.00E-9
+  XTF=10 VTF=10 ITF=1 CJC=0
+  VJC=.75 MJC=.33 XCJC=.9 FC=.5
+  TR=10.00E-9
.ENDS
*$
* pzta28 Darlington Transistor "macromodel" subcircuit
* Manufacturer FAIRCHILD SEMICONDUCTOR
* DATE 04/23/01
* Modeled at PSpice-ITeam nikkel
*
* connections:    Collector
*                 |  Base
*                 |  |  Emitter
*                 |  |  |
.SUBCKT pzta28    1  2  3

X1 1 2 3 mpsa28
*Same as mpsa28,different package and power dissipation
.ends
*$

* Motorola 80 Volt 4 Amp Darlington Transistor  07/20/98
*
* connections:    Collector
*                 |  Base
*                 |  |  Emitter
*                 |  |  |
.SUBCKT Q2N6036   1  2  3
*
Q1 1 2 4 Q1model
Q2 1 4 3 Q2model .5004
D1 1 3 Dmodel
R1 2 4 8.000E3
R2 4 3 60
.MODEL Dmodel D
+ IS=1.6978E-12
+ N=3.4748
+ RS=1.0000E-3
+ CJO=1.0000E-12
+ M=.3333
+ VJ=.75
+ ISR=100.00E-12
+ BV=100
+ IBV=1.00E-6
+ TT=5.0000E-9
.MODEL Q1model PNP
+  IS=1.587E-12 BF=1.998E3 NF=1 VAF=100
+  IKF=32.99E-3 ISE=2.716E-12 NE=1.457 BR=1.166
+  NR=1 VAR=100 IKR=19.91 ISC=1.656E-12
+  NC=2.997 RB=.1999 NK=.5185
+  RE=0 RC=0 EG=1.110
+  CJE=48.81E-12 VJE=1.332 MJE=.492 TF=2.0E-9
+  XTF=10 VTF=10 ITF=1 CJC=109.5E-12
+  VJC=1.147 MJC=.3068 XCJC=.9 FC=.5
+  TR=2.400E-6
.MODEL Q2model PNP
+  IS=1.587E-12 BF=1.998E3 NF=1 VAF=100
+  IKF=32.99E-3 ISE=2.716E-12 NE=1.457 BR=1.166
+  NR=1 VAR=100 IKR=19.91 ISC=1.656E-12
+  NC=2.997 RB=.1999 NK=.5185
+  RE=0 RC=0 EG=1.110
+  CJE=48.81E-12 VJE=1.332 MJE=.492 TF=2.0E-9
+  XTF=10 VTF=10 ITF=1 CJC=0
+  VJC=1.147 MJC=.3068 XCJC=.9 FC=.5
+  TR=2.400E-6
.ENDS
*$

*$
***********************************************************
* Q2N6040 Darlington Transistor "macromodel" subcircuit
* created using Parts release 8.1 on 12/18/97 at 15:06
* Parts is an Cadence Design Systems product.
*
* connections:    Collector
*                 |  Base
*                 |  |  Emitter
*                 |  |  |
.SUBCKT Q2N6040   1  2  3
*
Q1 1 2 4 Q1model
Q2 1 4 3 Q2model 3.76047
D1 1 3 Dmodel
R1 2 4 8.000E3
R2 4 3 120
.MODEL Dmodel D
+ IS=10.00E-15 RS=1.000E-3 N=1 XTI=3
+  CJO=10.00E-21 VJ=1 M=.5 FC=.5
.MODEL Q1model PNP
+  IS=219.582f BF=329.769 NF=1 VAF=100
+  IKF=0.185339 ISE=14.6688p NE=1.58277 BR=2.34372
+  NR=1 VAR=100 IKR=12.1336u ISC=100f
+  NC=2 RB=7.77763 NK=0.544311
+  RE=0 RC=1.14368 EG=1.110
+  CJE=145.6E-12 VJE=1.010 MJE=.4187 TF=1.8n
+  XTF=10 VTF=10 ITF=1 CJC=245.9E-12
+  VJC=1.500 MJC=.2688 XCJC=.9 FC=.5
+  TR=11u
.MODEL Q2model PNP
+  IS=219.582f BF=329.769 NF=1 VAF=100
+  IKF=0.185339 ISE=14.6688p NE=1.58277 BR=2.34372
+  NR=1 VAR=100 IKR=12.1336u ISC=100f
+  NC=2 RB=7.77763 NK=0.544311
+  RE=0 RC=1.14368 EG=1.110
+  CJE=145.6E-12 VJE=1.010 MJE=.4187 TF=1.8n
+  XTF=10 VTF=10 ITF=1 CJC=0
+  VJC=1.500 MJC=.2688 XCJC=.9 FC=.5
+  TR=11u
.ENDS

*$
* Motorola 100 Volt 12 Amp Darlington Transistor  07/20/98
*
* connections:    Collector
*                 |  Base
*                 |  |  Emitter
*                 |  |  |
.SUBCKT Q2N6052   1  2  3
*
Q1 1 2 4 Q1model
Q2 1 4 3 Q2model .99
D1 1 3 Dmodel
R1 2 4 5.000E3
R2 4 3 50
.MODEL Dmodel D
+ IS=5.3253E-12
+ N=3.4748
+ RS=1.0000E-3
+ CJO=1.0000E-12
+ M=.3333
+ VJ=.75
+ ISR=100.00E-12
+ BV=120
+ IBV=1.00E-6
+ TT=5.0000E-9
.MODEL Q1model PNP
+  IS=1.500E-12 BF=2.997E3 NF=1 VAF=100
+  IKF=.263 ISE=6.747E-12 NE=1.413 BR=499.5
+  NR=1 VAR=100 IKR=19.98 ISC=19.59E-12
+  NC=2.997 RB=1.0845 NK=.5779
+  RE=0 RC=0.196311 EG=1.110
+  CJE=316.6E-12 VJE=.436 MJE=.2878 TF=9.781E-9
+  XTF=1 VTF=10 ITF=10.00E-3 CJC=372.5E-12
+  VJC=1.177 MJC=.2738 XCJC=.9 FC=.5
+  TR=7.561E-9
.MODEL Q2model PNP
+  IS=1.500E-12 BF=2.997E3 NF=1 VAF=100
+  IKF=.263 ISE=6.747E-12 NE=1.413 BR=499.5
+  NR=1 VAR=100 IKR=19.98 ISC=19.59E-12
+  NC=2.997 RB=1.0845 NK=.5779
+  RE=0 RC=0.196311 EG=1.110
+  CJE=316.6E-12 VJE=.436 MJE=.2878 TF=9.781E-9
+  XTF=1 VTF=10 ITF=10.00E-3 CJC=0
+  VJC=1.177 MJC=.2738 XCJC=.9 FC=.5
+  TR=7.561E-9
.ENDS
*$


* Motorola 100 Volt 20 Amp Darlington Transistor  07/20/98
*
* connections:    Collector
*                 |  Base
*                 |  |  Emitter
*                 |  |  |
.SUBCKT Q2N6287   1  2  3
*
Q1 1 2 4 Q1model
Q2 1 4 3 Q2model 3.863
D1 1 3 Dmodel
R1 2 4 8.000E3
R2 4 3 60
.MODEL Dmodel D
+ IS=9.2795E-12
+ N=3.4748
+ RS=1.0000E-3
+ CJO=1.0000E-12
+ M=.3333
+ VJ=.75
+ ISR=100.00E-12
+ BV=120
+ IBV=1.00E-6
+ TT=5.0000E-9
.MODEL Q1model PNP
+  IS=275.6E-15 BF=2.997E3 NF=1 VAF=100
+  IKF=.1272 ISE=1.410E-12 NE=1.391 BR=499.5
+  NR=1 VAR=100 IKR=6.893 ISC=36.57E-9
+  NC=2.997 RB=3.9565 NK=.5516
+  RE=0 RC=0.47444 EG=1.110
+  CJE=514.3E-12 VJE=1.500 MJE=.4866 TF=10.00E-9
+  XTF=1 VTF=10 ITF=10.00E-3 CJC=597.5E-12
+  VJC=1.169 MJC=.2985 XCJC=.9 FC=.5
+  TR=7.00E-9
.MODEL Q2model PNP
+  IS=275.6E-15 BF=2.997E3 NF=1 VAF=100
+  IKF=.1272 ISE=1.410E-12 NE=1.391 BR=499.5
+  NR=1 VAR=100 IKR=6.893 ISC=36.57E-9
+  NC=2.997 RB=3.9465 NK=.5516
+  RE=0 RC=0.47444 EG=1.110
+  CJE=514.3E-12 VJE=1.500 MJE=.4866 TF=10.00E-9
+  XTF=1 VTF=10 ITF=10.00E-3 CJC=0
+  VJC=1.169 MJC=.2985 XCJC=.9 FC=.5
+  TR=7.00E-9
.ENDS
*$
* Motorola 80 Volt 10 Amp Darlington Transistor  07/20/98
*
* connections:    Collector
*                 |  Base
*                 |  |  Emitter
*                 |  |  |
.SUBCKT Q2N6667   1  2  3
*
Q1 1 2 4 Q1model
Q2 1 4 3 Q2model 5.886
D1 1 3 Dmodel
R1 2 4 8.000E3
R2 4 3 120
.MODEL Dmodel D
+ IS=4.3887E-12
+ N=3.4748
+ RS=1.0000E-3
+ CJO=1.0000E-12
+ M=.3333
+ VJ=.75
+ ISR=100.00E-12
+ BV=100
+ IBV=1.00E-6
+ TT=5.0000E-9
.MODEL Q1model PNP
+  IS=72.35E-15 BF=2.997E3 NF=1 VAF=100
+  IKF=.3179 ISE=1.475E-12 NE=1.391 BR=.1001
+  NR=1 VAR=100 IKR=1.546 ISC=72.35E-15
+  NC=1.677 RB=6.11834 NK=.6572
+  RE=0 RC=0.136604 EG=1.110
+  CJE=177.9E-12 VJE=.4582 MJE=.2338 TF=19.10E-9
+  XTF=1 VTF=10 ITF=10.00E-3 CJC=205.6E-12
+  VJC=.6795 MJC=.2498 XCJC=.9 FC=.5
+  TR=3.0E-6
.MODEL Q2model PNP
+  IS=72.35E-15 BF=2.997E3 NF=1 VAF=100
+  IKF=.3179 ISE=1.475E-12 NE=1.391 BR=.1001
+  NR=1 VAR=100 IKR=1.546 ISC=72.35E-15
+  NC=1.677 RB=6.11834 NK=.6572
+  RE=0 RC=0.136604 EG=1.110
+  CJE=177.9E-12 VJE=.4582 MJE=.2338 TF=19.10E-9
+  XTF=1 VTF=10 ITF=10.00E-3 CJC=0
+  VJC=.6795 MJC=.2498 XCJC=.9 FC=.5
+  TR=3.0E-6
.ENDS
*$

* Motorola 100 Volt 8 Amp Darlington Transistor  07/20/98
*
* connections:    Collector
*                 |  Base
*                 |  |  Emitter
*                 |  |  |
.SUBCKT TIP107    1  2  3
*
Q1 1 2 4 Q1model
Q2 1 4 3 Q2model 27.60
D1 1 3 Dmodel
R1 2 4 8.000E3
R2 4 3 120
.MODEL Dmodel D
+ IS=3.4721E-12
+ N=3.4748
+ RS=1.0000E-3
+ CJO=1.0000E-12
+ M=.3333
+ VJ=.75
+ ISR=100.00E-12
+ BV=120
+ IBV=1.00E-6
+ TT=5.0000E-9
.MODEL Q1model PNP
+  IS=980.0E-18 BF=2.997E3 NF=1 VAF=100
+  IKF=64.27E-3 ISE=216.1E-15 NE=1.502 BR=.1001
+  NR=1 VAR=100 IKR=10.01E-3 ISC=988.9E-15
+  NC=2.997 RB=19.6609 NK=.6613
+  RE=0 RC=3.83074 EG=1.110
+  CJE=145.4E-12 VJE=1.500 MJE=.4942 TF=8.00E-9
+  XTF=1 VTF=10 ITF=10.00E-3 CJC=239.7E-12
+  VJC=1.498 MJC=.252 XCJC=.9 FC=.5
+  TR=18.00E-6
.MODEL Q2model PNP
+  IS=980.0E-18 BF=2.997E3 NF=1 VAF=100
+  IKF=64.27E-3 ISE=216.1E-15 NE=1.502 BR=.1001
+  NR=1 VAR=100 IKR=10.01E-3 ISC=988.9E-15
+  NC=2.997 RB=19.6609 NK=.6613
+  RE=0 RC=3.83074 EG=1.110
+  CJE=145.4E-12 VJE=1.500 MJE=.4942 TF=8.00E-9
+  XTF=1 VTF=10 ITF=10.00E-3 CJC=0
+  VJC=1.498 MJC=.252 XCJC=.9 FC=.5
+  TR=18.00E-6
.ENDS
*$

* Motorola 100 Volt 2 Amp Darlington Transistor  07/20/98
*
* connections:    Collector
*                 |  Base
*                 |  |  Emitter
*                 |  |  |
.SUBCKT TIP117    1  2  3
*
Q1 1 2 4 Q1model
Q2 1 4 3 Q2model 19.07
D1 1 3 Dmodel
R1 2 4 8.000E3
R2 4 3 60
.MODEL Dmodel D
+ IS=3.4721E-12
+ N=3.4748
+ RS=1.0000E-3
+ CJO=1.0000E-12
+ M=.3333
+ VJ=.75
+ ISR=100.00E-12
+ BV=120
+ IBV=1.00E-6
+ TT=5.0000E-9
.MODEL Q1model PNP
+  IS=42.45E-15 BF=707.4 NF=1 VAF=100
+  IKF=10.01E-3 ISE=55.78E-15 NE=1.998 BR=.1001
+  NR=1 VAR=100 IKR=10.61 ISC=907.3E-15
+  NC=2.997 RB=7.69995 NK=.545
+  RE=0 RC=0.00100321 EG=1.110
+  CJE=46.60E-12 VJE=.35 MJE=.2506 TF=8.00E-9
+  XTF=1 VTF=10 ITF=10.00E-3 CJC=106.0E-12
+  VJC=1.330 MJC=.3062 XCJC=.9 FC=.5
+  TR=4.00E-5
.MODEL Q2model PNP
+  IS=42.45E-15 BF=707.4 NF=1 VAF=100
+  IKF=10.01E-3 ISE=55.78E-15 NE=1.998 BR=.1001
+  NR=1 VAR=100 IKR=10.61 ISC=907.3E-15
+  NC=2.997 RB=7.69995 NK=.545
+  RE=0 RC=0.00100321 EG=1.110
+  CJE=46.60E-12 VJE=.35 MJE=.2506 TF=8.00E-9
+  XTF=1 VTF=10 ITF=10.00E-3 CJC=0
+  VJC=1.330 MJC=.3062 XCJC=.9 FC=.5
+  TR=4.00E-5
.ENDS

*$
* Motorola 100 Volt 10 Amp Darlington Transistor  07/20/98
*
* connections:    Collector
*                 |  Base
*                 |  |  Emitter
*                 |  |  |
.SUBCKT TIP147    1  2  3
*
Q1 1 2 4 Q1model
Q2 1 4 3 Q2model 5.131
D1 1 3 Dmodel
R1 2 4 8.000E3
R2 4 3 40
.MODEL Dmodel D
+ IS=4.3887E-12
+ N=3.4748
+ RS=1.0000E-3
+ CJO=1.0000E-12
+ M=.3333
+ VJ=.75
+ ISR=100.00E-12
+ BV=120
+ IBV=1.00E-6
+ TT=5.0000E-9
.MODEL Q1model PNP
+  IS=350.7E-15 BF=2.997E3 NF=1 VAF=100
+  IKF=.7028 ISE=20.45E-12 NE=1.522 BR=.1001
+  NR=1 VAR=100 IKR=4.029 ISC=21.47E-9
+  NC=1.562 RB=5.07314 NK=.7315
+  RE=0 RC=0.00101053 EG=1.110
+  CJE=2.000E-12 VJE=.75 MJE=.33 TF=15.00E-9
+  XTF=1 VTF=10 ITF=10.00E-3 CJC=2.000E-12
+  VJC=.75 MJC=.33 XCJC=.9 FC=.5
+  TR=8.00E-5
.MODEL Q2model PNP
+  IS=350.7E-15 BF=2.997E3 NF=1 VAF=100
+  IKF=.7028 ISE=20.45E-12 NE=1.522 BR=.1001
+  NR=1 VAR=100 IKR=4.029 ISC=21.47E-9
+  NC=1.562 RB=5.07314 NK=.7315
+  RE=0 RC=0.00101053 EG=1.110
+  CJE=2.000E-12 VJE=.75 MJE=.33 TF=15.00E-9
+  XTF=1 VTF=10 ITF=10.00E-3 CJC=0
+  VJC=.75 MJC=.33 XCJC=.9 FC=.5
+  TR=8.00E-5
.ENDS
*$
