
*$
* Motorola 100 Volt 8 Amp Darlington Transistor  07/20/98
*
* connections:    Collector
*                 |  Base
*                 |  |  Emitter
*                 |  |  |
.SUBCKT TIP102    1  2  3
*
Q1 1 2 4 Q1model
Q2 1 4 3 Q2model 19.61
D1 3 1 Dmodel
R1 2 4 8.000E3
R2 4 3 120
.MODEL Dmodel D
+ IS=3.4721E-12
+ N=3.4748
+ RS=1.0000E-3
+ CJO=1.0000E-12
+ M=.3333
+ VJ=.75
+ ISR=100.00E-12
+ BV=120
+ IBV=1.00E-6
+ TT=5.0000E-9
.MODEL Q1model NPN
+  IS=209.2E-15 BF=2.997E3 NF=1 VAF=100
+  IKF=71.77E-3 ISE=4.744E-12 NE=1.447 BR=36.63
+  NR=1 VAR=100 IKR=.4299 ISC=1.630E-12
+  NC=1.002 RB=27.3662 NK=.5871
+  RE=0 RC=3.26784 EG=1.110
+  CJE=111.8E-12 VJE=.5941 MJE=.4082 TF=18.00E-9
+  XTF=1 VTF=10 ITF=10.00E-3 CJC=160.1E-12
+  VJC=.5399 MJC=.1963 XCJC=.9 FC=.5
+  TR=13.00E-6
.MODEL Q2model NPN
+  IS=209.2E-15 BF=2.997E3 NF=1 VAF=100
+  IKF=71.77E-3 ISE=4.744E-12 NE=1.447 BR=36.63
+  NR=1 VAR=100 IKR=.4299 ISC=1.630E-12
+  NC=1.002 RB=27.3662 NK=.5871
+  RE=0 RC=3.26784 EG=1.110
+  CJE=111.8E-12 VJE=.5941 MJE=.4082 TF=18.00E-9
+  XTF=1 VTF=10 ITF=10.00E-3 CJC=0
+  VJC=.5399 MJC=.1963 XCJC=.9 FC=.5
+  TR=13.00E-6
.ENDS
*$
* Motorola 100 Volt 8 Amp Darlington Transistor  07/20/98
*
* connections:    Collector
*                 |  Base
*                 |  |  Emitter
*                 |  |  |

*$
* Motorola 100 Volt 2 Amp Darlington Transistor  07/20/98
*
* connections:    Collector
*                 |  Base
*                 |  |  Emitter
*                 |  |  |
.SUBCKT TIP112    1  2  3
*
Q1 1 2 4 Q1model
Q2 1 4 3 Q2model .5
D1 3 1 Dmodel
R1 2 4 8.000E3
R2 4 3 60
.MODEL Dmodel D
+ IS=3.4721E-12
+ N=3.4748
+ RS=1.0000E-3
+ CJO=1.0000E-12
+ M=.3333
+ VJ=.75
+ ISR=100.00E-12
+ BV=120
+ IBV=1.00E-6
+ TT=5.0000E-9
.MODEL Q1model NPN
+  IS=1.961E-12 BF=2.997E3 NF=1 VAF=100
+  IKF=10.01E-3 ISE=4.706E-12 NE=1.428 BR=.1954
+  NR=1 VAR=100 IKR=7.974 ISC=2.203E-12
+  NC=2.997 RB=0.100825 NK=.4507
+  RE=0 RC=0.167214 EG=1.110
+  CJE=38.29E-12 VJE=.35 MJE=.321 TF=12.00E-9
+  XTF=1 VTF=10 ITF=10.00E-3 CJC=41.23E-12
+  VJC=1.162 MJC=.1636 XCJC=.9 FC=.5
+  TR=1.00E-5
.MODEL Q2model NPN
+  IS=1.961E-12 BF=2.997E3 NF=1 VAF=100
+  IKF=10.01E-3 ISE=4.706E-12 NE=1.428 BR=.1954
+  NR=1 VAR=100 IKR=7.974 ISC=2.203E-12
+  NC=2.997 RB=0.100825 NK=.4507
+  RE=0 RC=0.167214 EG=1.110
+  CJE=38.29E-12 VJE=.35 MJE=.321 TF=12.00E-9
+  XTF=1 VTF=10 ITF=10.00E-3 CJC=0
+  VJC=1.162 MJC=.1636 XCJC=.9 FC=.5
+  TR=1.00E-5
.ENDS

**************************************
*      Model Generated by MODPEX     *
*Copyright(c) Symmetry Design Systems*
*         All Rights Reserved        *
*    UNPUBLISHED LICENSED SOFTWARE   *
*   Contains Proprietary Information *
*      Which is The Property of      *
*     SYMMETRY OR ITS LICENSORS      *
*    Modeling services provided by   *
* Interface Technologies www.i-t.com *
**************************************
.SUBCKT tip121 1 2 3
* Model generated on Feb  8, 2004
* Model format: PSpice
* Darlington macro model
* External node designations
* Node 1 -> Collect
* Node 2 -> Base
* Node 3 -> Emitter
Q1 1 2 4 qmodel
Q2 1 4 3 q1model 2.80758
D1 3 1 dmodel
R1 2 4 10000
R2 4 3 1000
* Default values used in dmodel
*   EG=1.11 TT=0 BV=infinite
.MODEL dmodel d
+IS=1e-12 RS=10 N=1 XTI=3
+CJO=0 VJ=0.75 M=0.33 FC=0.5
.MODEL qmodel npn
+IS=3.29109e-14 BF=391.787 NF=0.894469 VAF=33.1384
+IKF=0.198445 ISE=1.21403e-10 NE=1.6375 BR=0.1
+NR=1.34795 VAR=135.277 IKR=0.137744 ISC=1.01287e-13
+NC=1.97483 RB=4.90772 IRB=0.200762 RBM=4.90772
+RE=0.0826202 RC=0.413101 XTB=0.584577 XTI=2.92564 EG=1.05
+CJE=2.09731e-10 VJE=0.95 MJE=0.23 TF=1e-09
+XTF=1 VTF=10 ITF=0.01 CJC=1.53283e-10
+VJC=0.95 MJC=0.23 XCJC=0.9 FC=0.5
+TR=1e-07 PTF=0 KF=0 AF=1
.MODEL q1model npn
+IS=3.29109e-14 BF=391.787 NF=0.894469 VAF=33.1384
+IKF=0.198445 ISE=1.21403e-10 NE=1.6375 BR=0.1
+NR=1.34795 VAR=135.277 IKR=0.137744 ISC=1.01287e-13
+NC=1.97483 RB=4.90772 IRB=0.200762 RBM=4.90772
+RE=0.0826202 RC=0.413101 XTB=0.584577 XTI=2.92564 EG=1.05
+CJE=2.09731e-10 VJE=0.95 MJE=0.23 TF=1e-09
+XTF=1 VTF=10 ITF=0.01 CJC=0
+VJC=0.95 MJC=0.23 XCJC=0.9 FC=0.5
+TR=1e-07 PTF=0 KF=0 AF=1
.ENDS

.SUBCKT tip122 1 2 3
**************************************
*      Model Generated by MODPEX     *
*Copyright(c) Symmetry Design Systems*
*         All Rights Reserved        *
*    UNPUBLISHED LICENSED SOFTWARE   *
*   Contains Proprietary Information *
*      Which is The Property of      *
*     SYMMETRY OR ITS LICENSORS      *
*    Modeling services provided by   *
* Interface Technologies www.i-t.com *
**************************************
* Model generated on Dec 19, 2003
* Model format: PSpice
* Darlington macro model
* External node designations
* Node 1 -> Collect
* Node 2 -> Base
* Node 3 -> Emitter
Q1 1 2 4 qmodel
Q2 1 4 3 q1model 2.7545
D1 3 1 dmodel
R1 2 4 10000
R2 4 3 1000
* Default values used in dmodel
*   EG=1.11 TT=0 BV=infinite
.MODEL dmodel d
+IS=1e-12 RS=10 N=1 XTI=3
+CJO=0 VJ=0.75 M=0.33 FC=0.5
.MODEL qmodel npn
+IS=1.15528e-13 BF=387.828 NF=0.937439 VAF=30
+IKF=0.270029 ISE=5.36359e-11 NE=1.54544 BR=0.1
+NR=1.5 VAR=134.979 IKR=0.109764 ISC=1.00329e-13
+NC=1.97549 RB=4.9473 IRB=0.200762 RBM=4.9473
+RE=0.0964614 RC=0.482307 XTB=0.580269 XTI=2.92642 EG=1.05
+CJE=2.08206e-10 VJE=0.945586 MJE=0.23 TF=1e-09
+XTF=1 VTF=10 ITF=0.01 CJC=1.67927e-10
+VJC=0.754327 MJC=0.289398 XCJC=0.9 FC=0.5
+TR=1e-07 PTF=0 KF=0 AF=1
.MODEL q1model npn
+IS=1.15528e-13 BF=387.828 NF=0.937439 VAF=30
+IKF=0.270029 ISE=5.36359e-11 NE=1.54544 BR=0.1
+NR=1.5 VAR=134.979 IKR=0.109764 ISC=1.00329e-13
+NC=1.97549 RB=4.9473 IRB=0.200762 RBM=4.9473
+RE=0.0964614 RC=0.482307 XTB=0.580269 XTI=2.92642 EG=1.05
+CJE=2.08206e-10 VJE=0.945586 MJE=0.23 TF=1e-09
+XTF=1 VTF=10 ITF=0.01 CJC=0
+VJC=0.754327 MJC=0.289398 XCJC=0.9 FC=0.5
+TR=1e-07 PTF=0 KF=0 AF=1
.ENDS


* =======================================================================

* Vcbo & Vceo: TIP140 60V / TIP141 80V / TIP142 100V

* Ic(DC) 10A / Ic(Pulse) 15A / Ib 0.5A

* =======================================================================

* Connections:    Collector 1   Base 2  Emitter 3

* =======================================================================

.SUBCKT TIP142     1  2  3

*

Q1 1 2 4 Q1model

Q2 1 4 3 Q2model 5.888

D1 3 1 Dmodel

R1 2 4 8.000E3

R2 4 3 120

.MODEL Dmodel D

+  IS=4.721E-12         RS=1.083E-6         N=1.068

+  CJO=4.822E-10        VJ=.5               M=.34

+  FC=.5

.MODEL Q1model NPN

+  IS=8.075E-14         BF=7.827E3          NF=1

+  VAF=100              IKF=1.094           ISE=4.463E-13

+  NE=1.337             BR=0.1001           NR=1

+  VAR=100              IKR=0.4891          ISC=2.302E-13

+  NC=3.197             RB=2.222            RE=0.001

+  RC=0.990             EG=1.110            CJE=4.389E-10

+  VJE=0.77             MJE=0.3101          CJC=4.852E-10

+  VJC=0.4855           MJC=0.3379          XCJC=0.469

+  FC=.5

.MODEL Q2model NPN

+  IS=8.075E-14         BF=7.827E3          NF=1

+  VAF=100              IKF=1.094           ISE=4.463E-13

+  NE=1.297             BR=0.1001           NR=1

+  VAR=100              IKR=0.4891          ISC=2.302E-13

+  NC=3.197             RB=2.222            RE=0.001

+  RC=0.990             EG=1.110            CJE=4.389E-10

+  VJE=0.77             MJE=0.3101          CJC=0

+  VJC=0.4855           MJC=0.3379          XCJC=0.469

+  FC=0.5

.ENDS

* ======================================================================

* FAIRCHILD      CASE: TO-3P      PID: TIP142

* FEB-28-2001 CREATION


* Library of Darlington Transistor "macromodels"
*
*  Copyright Cadence Design Systems, Inc. 2002 All Rights Reserved.
*
*
* $Revision:   1.3  $
* $Author:   HIRASUNA  $
* $Date:   18 Aug 2001 13:26:32  $
*$
* BC372 Darlington Transistor "macromodel" subcircuit
* Manufacturer ONSEMI
* DATE 04/25/01
* Modeled at PSpice-ITeam nikkel
*
* connections:    Collector
*                 |  Base
*                 |  |  Emitter
*                 |  |  |
.SUBCKT bc372    1  2  3
*
Q1 1 2 4 Q1model
Q2 1 4 3 Q2model 1.455
D1 3 1 Dmodel
R1 2 4 1.000E6
R2 4 3 1.000E6
.MODEL Dmodel D
+ IS=10.00E-15 RS=1.000E-3 N=1 XTI=3
+  CJO=10.00E-21 VJ=1 M=.5 FC=.5
.MODEL Q1model NPN
+  IS=203.9E-15 BF=1050 NF=1 VAF=100
+  IKF=.1808 ISE=1.167E-12 NE=1.427 BR=25.91
+  NR=1 VAR=100 IKR=1.001E-3 ISC=767.8E-15
+  NC=1.568 RB=31.33 NK=.5584
+  RE=0 RC=2.34 EG=1.110
+  CJE=42.88E-12 VJE=1.999 MJE=.7155 TF=1.000E-9
+  XTF=1 VTF=10 ITF=10.00E-3 CJC=21.43E-12
+  VJC=1.930 MJC=.439 XCJC=.9 FC=.5
+  TR=1.000E-9
.MODEL Q2model NPN
+  IS=203.9E-15 BF=1050 NF=1 VAF=100
+  IKF=.1808 ISE=1.167E-12 NE=1.427 BR=25.91
+  NR=1 VAR=100 IKR=1.001E-3 ISC=767.8E-15
+  NC=1.568 RB=31.33 NK=.5584
+  RE=0 RC=2.34 EG=1.110
+  CJE=42.88E-12 VJE=1.999 MJE=.7155 TF=1.000E-9
+  XTF=1 VTF=10 ITF=10.00E-3 CJC=0
+  VJC=1.930 MJC=.439 XCJC=.9 FC=.5
+  TR=1.000E-9
.ENDS

***********************************************************
* BCV47 Darlington Transistor "macromodel" subcircuit
* created using Parts release 8.1 on 01/23/98 at 15:34
* Parts is an Cadence Design Systems product.
*
* connections:    Collector
*                 |  Base
*                 |  |  Emitter
*                 |  |  |
.SUBCKT BCV47     1  2  3
*
Q1 1 2 4 Q1model
Q2 1 4 3 Q2model 0.820266
D1 3 1 Dmodel
R1 2 4 6.000E9
R2 4 3 6.000E9
.MODEL Dmodel D
+ IS=10.00E-15 RS=1.000E-3 N=1 XTI=3
+  CJO=10.00E-21 VJ=1 M=.5 FC=.5
.MODEL Q1model NPN
+  IS=2.888205e-014 BF=327.434 NF=1 VAF=100
+  IKF=1.21592 ISE=2.917181e-015 NE=1.26311 BR=1.1125
+  NR=1 VAR=100 IKR=4.83078e-005 ISC=1.371550e-014
+  NC=2.00409 RB=19.98 NK=0.675285
+  RE=0 RC=0.018801 EG=1.110
+  CJE=13.3E-12 VJE=0.35 MJE=0.25875 TF=1.00E-9
+  XTF=10 VTF=10 ITF=1 CJC=8.502E-12
+  VJC=.75 MJC=.3333 XCJC=.9 FC=.5
+  TR=1.00E-9
.MODEL Q2model NPN
+  IS=2.888205e-014 BF=327.434 NF=1 VAF=100
+  IKF=1.21592 ISE=2.917181e-015 NE=1.26311 BR=1.1125
+  NR=1 VAR=100 IKR=4.83078e-005 ISC=1.371550e-014
+  NC=2.00409 RB=19.98 NK=0.675285
+  RE=0 RC=0.018801 EG=1.110
+  CJE=13.3E-12 VJE=0.35 MJE=0.25875 TF=1.00E-9
+  XTF=10 VTF=10 ITF=1 CJC=0
+  VJC=.75 MJC=.3333 XCJC=.9 FC=.5
+  TR=1.00E-9
.ENDS
*$
***********************************************************
* BCV49 Darlington Transistor "macromodel" subcircuit
* created using Optimizer release 8.1 on 02/2/98
* Optimizer is an Cadence Design Systems product.
*
* connections:    Collector
*                 |  Base
*                 |  |  Emitter
*                 |  |  |
.SUBCKT BCV49     1  2  3
*
Q1 1 2 4 Q1model
Q2 1 4 3 Q2model 0.802
D1 3 1 Dmodel
R1 2 4 30.00E9
R2 4 3 30.00E9
.MODEL Dmodel D
+ IS=10.00E-15 RS=1.000E-3 N=1 XTI=3
+  CJO=10.00E-21 VJ=1 M=.5 FC=.5
.MODEL Q1model NPN
+  IS=2.492442e-014 BF=293.158 NF=1 VAF=100
+  IKF=2.98909 ISE=1.001498e-014 NE=1.41485 BR=10.1119
+  NR=1 VAR=100 IKR=2.75689e-005 ISC=1.094700e-013
+  NC=1.23862 RB=1.84509 NK=0.982404
+  RE=0 RC=0.0010099 EG=1.110
+  CJE=15E-12 VJE=.35 MJE=.2746 TF=1.00E-9
+  XTF=10 VTF=10 ITF=1 CJC=8.5E-12
+  VJC=.35 MJC=.2487 XCJC=.9 FC=.5
+  TR=1.00E-9
.MODEL Q2model NPN
+  IS=2.492442e-014 BF=293.158 NF=1 VAF=100
+  IKF=2.98909 ISE=1.001498e-014 NE=1.41485 BR=10.1119
+  NR=1 VAR=100 IKR=2.75689e-005 ISC=1.094700e-013
+  NC=1.23862 RB=1.84509 NK=0.982404
+  RE=0 RC=0.0010099 EG=1.110
+  CJE=15E-12 VJE=.35 MJE=.2746 TF=1.00E-9
+  XTF=10 VTF=10 ITF=1 CJC=0
+  VJC=.35 MJC=.2487 XCJC=.9 FC=.5
+  TR=1.00E-9
.ENDS
*$
* Motorola 100 Volt 15 Amp Darlington Transistor  07/20/98
*
* connections:    Collector
*                 |  Base
*                 |  |  Emitter
*                 |  |  |
.SUBCKT BDW42     1  2  3
*
Q1 1 2 4 Q1model
Q2 1 4 3 Q2model 1.451
D1 3 1 Dmodel
R1 2 4 8.000E3
R2 4 3 150
.MODEL Dmodel D
+ IS=6.7687E-12
+ N=3.4748
+ RS=1.0000E-3
+ CJO=1.0000E-12
+ M=.3333
+ VJ=.75
+ ISR=100.00E-12
+ BV=120
+ IBV=1.00E-6
+ TT=5.0000E-9
.MODEL Q1model NPN
+  IS=150.7E-15 BF=2.997E3 NF=1 VAF=100
+  IKF=.8407 ISE=1.148E-12 NE=1.337 BR=.1884
+  NR=1 VAR=100 IKR=10.01E-3 ISC=936.7E-15
+  NC=2.940 RB=2.1193 NK=.6388
+  RE=0 RC=0.194791 EG=1.110
+  CJE=105.5E-12 VJE=.7775 MJE=.4512 TF=20.00E-9
+  XTF=1 VTF=10 ITF=10.00E-3 CJC=160.1E-12
+  VJC=.8966 MJC=.3035 XCJC=.9 FC=.5
+  TR=8.00E-6
.MODEL Q2model NPN
+  IS=150.7E-15 BF=2.997E3 NF=1 VAF=100
+  IKF=.8407 ISE=1.148E-12 NE=1.337 BR=.1884
+  NR=1 VAR=100 IKR=10.01E-3 ISC=936.7E-15
+  NC=2.940 RB=2.1193 NK=.6388
+  RE=0 RC=0.194791 EG=1.110
+  CJE=105.5E-12 VJE=.7775 MJE=.4512 TF=20.00E-9
+  XTF=1 VTF=10 ITF=10.00E-3 CJC=0
+  VJC=.8966 MJC=.3035 XCJC=.9 FC=.5
+  TR=8.00E-6
.ENDS
*$
* Motorola 100 Volt 15 Amp Darlington Transistor  07/20/98
*
* connections:    Collector
*                 |  Base
*                 |  |  Emitter
*                 |  |  |
*$
* bdw93 Darlington Transistor "macromodel" subcircuit
* Manufacturer FAIRCHILD SEMICONDUCTOR
* DATE 04/23/01
* Modeled at PSpice-ITeam nikkel
*
* connections:    Collector
*                 |  Base
*                 |  |  Emitter
*                 |  |  |
.SUBCKT bdw93     1  2  3
*
Q1 1 2 4 Q1model
Q2 1 4 3 Q2model .9844
D1 3 1 Dmodel
R1 2 4 1.000E6
R2 4 3 1.000E6
.MODEL Dmodel D
+ IS=10.00E-15 RS=1.000E-3 N=1 XTI=3
+  CJO=10.00E-21 VJ=1 M=.5 FC=.5
.MODEL Q1model NPN
+  IS=581.5E-15 BF=2000 NF=1 VAF=100
+  IKF=4 ISE=13.16E-12 NE=1.412 BR=69.97
+  NR=1 VAR=100 IKR=5.867 ISC=2.208E-12
+  NC=1.850 RB=.3168 NK=.7847
+  RE=0 RC=.01 EG=1.110
+  CJE=10.00E-12 VJE=.75 MJE=.33 TF=1.000E-9
+  XTF=1 VTF=10 ITF=10.00E-3 CJC=164.0E-12
+  VJC=1.999 MJC=.3185 XCJC=.9 FC=.5
+  TR=1.000E-9
.MODEL Q2model NPN
+  IS=581.5E-15 BF=2000 NF=1 VAF=100
+  IKF=4 ISE=13.16E-12 NE=1.412 BR=69.97
+  NR=1 VAR=100 IKR=5.867 ISC=2.208E-12
+  NC=1.850 RB=.3168 NK=.7847
+  RE=0 RC=.01 EG=1.110
+  CJE=10.00E-12 VJE=.75 MJE=.33 TF=1.000E-9
+  XTF=1 VTF=10 ITF=10.00E-3 CJC=0
+  VJC=1.999 MJC=.3185 XCJC=.9 FC=.5
+  TR=1.000E-9
.ENDS
*$
* Motorola 100 Volt 10 Amp Darlington Transistor  07/20/98
*
* connections:    Collector
*                 |  Base
*                 |  |  Emitter
*                 |  |  |
.SUBCKT BDX33C    1  2  3
*
Q1 1 2 4 Q1model
Q2 1 4 3 Q2model 2.145
D1 3 1 Dmodel
R1 2 4 8.000E3
R2 4 3 60
.MODEL Dmodel D
+ IS=409.70E-21
+ N=3.4748
+ RS=1.0000E-3
+ CJO=1.0000E-12
+ M=.3333
+ VJ=.75
+ ISR=100.00E-12
+ BV=120
+ IBV=1.00E-6
+ TT=5.0000E-9
.MODEL Q1model NPN
+  IS=377.5E-15 BF=1.199E3 NF=1 VAF=100
+  IKF=1.302 ISE=2.247E-12 NE=1.343 BR=69.93
+  NR=1 VAR=100 IKR=27.99 ISC=5.783E-12
+  NC=3.197 RB=3.136 NK=.7371
+  RE=0 RC=.1 EG=1.110
+  CJE=105.3E-12 VJE=.8816 MJE=.486 TF=18.00E-9
+  XTF=1 VTF=10 ITF=10.00E-3 CJC=158.9E-12
+  VJC=.9144 MJC=.2259 XCJC=.9 FC=.5
+  TR=23.00E-9
.MODEL Q2model NPN
+  IS=377.5E-15 BF=1.199E3 NF=1 VAF=100
+  IKF=1.302 ISE=2.247E-12 NE=1.343 BR=69.93
+  NR=1 VAR=100 IKR=27.99 ISC=5.783E-12
+  NC=3.197 RB=3.136 NK=.7371
+  RE=0 RC=.1 EG=1.110
+  CJE=105.3E-12 VJE=.8816 MJE=.486 TF=18.00E-9
+  XTF=1 VTF=10 ITF=10.00E-3 CJC=0
+  VJC=.9144 MJC=.2259 XCJC=.9 FC=.5
+  TR=23.00E-9
.ENDS
*$
* Motorola 100 Volt 10 Amp Darlington Transistor  07/20/98
*
* connections:    Collector
*                 |  Base
*                 |  |  Emitter
*                 |  |  |

*$
* Motorola 100 Volt 8 Amp Darlington Transistor  07/20/98
*
* connections:    Collector
*                 |  Base
*                 |  |  Emitter
*                 |  |  |
.SUBCKT BDX53C    1  2  3
*
Q1 1 2 4 Q1model
Q2 1 4 3 Q2model 2.145
D1 3 1 Dmodel
R1 2 4 8.000E3
R2 4 3 60
.MODEL Dmodel D
+ IS=3.4721E-12
+ N=3.4748
+ RS=1.0000E-3
+ CJO=1.0000E-12
+ M=.3333
+ VJ=.75
+ ISR=100.00E-12
+ BV=120
+ IBV=1.00E-6
+ TT=5.0000E-9
.MODEL Q1model NPN
+  IS=377.5E-15 BF=1.199E3 NF=1 VAF=100
+  IKF=1.302 ISE=2.247E-12 NE=1.343 BR=69.93
+  NR=1 VAR=100 IKR=27.99 ISC=5.783E-12
+  NC=3.197 RB=3.136 NK=.7371
+  RE=0 RC=.1 EG=1.110
+  CJE=105.3E-12 VJE=.8816 MJE=.486 TF=18.00E-9
+  XTF=1 VTF=10 ITF=10.00E-3 CJC=158.9E-12
+  VJC=.9144 MJC=.2259 XCJC=.9 FC=.5
+  TR=23.00E-9
.MODEL Q2model NPN
+  IS=377.5E-15 BF=1.199E3 NF=1 VAF=100
+  IKF=1.302 ISE=2.247E-12 NE=1.343 BR=69.93
+  NR=1 VAR=100 IKR=27.99 ISC=5.783E-12
+  NC=3.197 RB=3.136 NK=.7371
+  RE=0 RC=.1 EG=1.110
+  CJE=105.3E-12 VJE=.8816 MJE=.486 TF=18.00E-9
+  XTF=1 VTF=10 ITF=10.00E-3 CJC=0
+  VJC=.9144 MJC=.2259 XCJC=.9 FC=.5
+  TR=23.00E-9
.ENDS
*$
* Motorola 100 Volt 8 Amp Darlington Transistor  07/20/98
*
* connections:    Collector
*                 |  Base
*                 |  |  Emitter
*                 |  |  |

*$
* BC372 Darlington Transistor "macromodel" subcircuit
* Manufacturer MOTOROLA
* DATE 04/23/01
* Modeled at PSpice-ITeam nikkel
*
* connections:    Collector
*                 |  Base
*                 |  |  Emitter
*                 |  |  |
.SUBCKT bu323a    1  2  3
*
Q1 1 2 4 Q1model
Q2 1 4 3 Q2model 5.383
D1 3 1 Dmodel
R1 2 4 1.000E3
R2 4 3 30
.MODEL Dmodel D
+ IS=10.00E-15 RS=1.000E-3 N=1 XTI=3
+  CJO=10.00E-21 VJ=1 M=.5 FC=.5
.MODEL Q1model NPN
+  IS=1.551E-15 BF=119.3 NF=1 VAF=100
+  IKF=2.168155 ISE=19.92E-15 NE=1.240 BR=69.38
+  NR=1 VAR=100 IKR=4.335
+  NC=1.795 RB=2.925 NK=.82985
+  RE=0 RC=.4 EG=1.110
+  CJE=10.00E-12 VJE=.75 MJE=.33 TF=1.000E-8
+  XTF=1 VTF=10 ITF=10.00E-3 CJC=400.8E-12
+  VJC=.75 MJC=.3333 XCJC=.9 FC=.5
+  TR=550.4E-9
.MODEL Q2model NPN
+  IS=1.551E-15 BF=119.3 NF=1 VAF=100
+  IKF=2.168155 ISE=19.92E-15 NE=1.240 BR=69.38
+  NR=1 VAR=100 IKR=4.335 ISC=6.924E-18
+  NC=1.795 RB=2.925 NK=.82985
+  RE=0 RC=.4 EG=1.110
+  CJE=10.00E-12 VJE=.75 MJE=.33 TF=1.000E-8
+  XTF=1 VTF=10 ITF=10.00E-3 CJC=0
+  VJC=.75 MJC=.3333 XCJC=.9 FC=.5
+  TR=550.4E-9
.ENDS
*$
* Motorola 600 Volt 56 Amp Darlington Transistor  07/20/98
*
* connections:    Collector
*                 |  Base
*                 |  |  Emitter
*                 |  |  |
.SUBCKT BUT33     1  2  3
*
Q1 1 2 4 Q1model
Q2 1 4 3 Q2model .8
D1 3 1 Dmodel
D2 4 2 Dmodel
R1 2 4 100
R2 4 3 16
.MODEL Dmodel D
+ IS=3.3635E-18
+ N=3.4748
+ RS=1.0000E-3
+ CJO=1.0000E-12
+ M=.3333
+ VJ=.75
+ ISR=100.00E-12
+ BV=750
+ IBV=1.00E-6
+ TT=5.0000E-9
.MODEL Q1model NPN
+  IS=30.00E-12 BF=97.10 NF=1 VAF=100
+  IKF=2.966 ISE=249.8E-12 NE=1.263 BR=.1584
+  NR=1 VAR=100 IKR=3.167E-3 ISC=30.75E-9
+  NC=1.744 RB=40.51E-3 NK=.4887
+  RE=0 RC=40.27E-3 EG=1.110
+  CJE=10.00E-12 VJE=.75 MJE=.33 TF=135.0E-9
+  XTF=1 VTF=10 ITF=10.00E-3 CJC=10.00E-12
+  VJC=.75 MJC=.33 XCJC=.9 FC=.5
+  TR=5.50E-5
.MODEL Q2model NPN
+  IS=30.00E-12 BF=97.10 NF=1 VAF=100
+  IKF=2.966 ISE=249.8E-12 NE=1.263 BR=.1584
+  NR=1 VAR=100 IKR=3.167E-3 ISC=30.75E-9
+  NC=1.744 RB=40.51E-3 NK=.4887
+  RE=0 RC=40.27E-3 EG=1.110
+  CJE=10.00E-12 VJE=.75 MJE=.33 TF=135.0E-9
+  XTF=1 VTF=10 ITF=10.00E-3 CJC=0
+  VJC=.75 MJC=.33 XCJC=.9 FC=.5
+  TR=5.50E-5
.ENDS
*$
* Motorola 850 Volt 50 Amp Darlington Transistor  07/20/98
*
* connections:    Collector
*                 |  Base
*                 |  |  Emitter
*                 |  |  |
.SUBCKT BUT34     1  2  3
*
Q1 1 2 4 Q1model
Q2 1 4 3 Q2model .8
D1 3 1 Dmodel
D2 4 2 Dmodel
R1 2 4 100
R2 4 3 16
.MODEL Dmodel D
+ IS=2.9246E-18
+ N=3.4748
+ RS=1.0000E-3
+ CJO=1.0000E-12
+ M=.3333
+ VJ=.75
+ ISR=100.00E-12
+ BV=937
+ IBV=1.00E-6
+ TT=5.0000E-9
.MODEL Q1model NPN
+  IS=30.00E-12 BF=97.10 NF=1 VAF=100
+  IKF=2.966 ISE=249.8E-12 NE=1.263 BR=.1584
+  NR=1 VAR=100 IKR=3.167E-3 ISC=83.59E-9
+  NC=1.744 RB=40.49E-3 NK=.4887
+  RE=0 RC=40.27E-3 EG=1.110
+  CJE=10.00E-12 VJE=.75 MJE=.33 TF=130.0E-9
+  XTF=1 VTF=10 ITF=10.00E-3 CJC=1.00E-12
+  VJC=.75 MJC=.33 XCJC=.9 FC=.5
+  TR=4.50E-5
.MODEL Q2model NPN
+  IS=30.00E-12 BF=97.10 NF=1 VAF=100
+  IKF=2.966 ISE=249.8E-12 NE=1.263 BR=.1584
+  NR=1 VAR=100 IKR=3.167E-3 ISC=83.59E-9
+  NC=1.744 RB=40.49E-3 NK=.4887
+  RE=0 RC=40.27E-3 EG=1.110
+  CJE=10.00E-12 VJE=.75 MJE=.33 TF=130.0E-9
+  XTF=1 VTF=10 ITF=10.00E-3 CJC=0
+  VJC=.75 MJC=.33 XCJC=.9 FC=.5
+  TR=4.50E-5
.ENDS
*$
* ksd1413 Darlington Transistor "macromodel" subcircuit
* Manufacturer FAIRCHILD SEMICONDUCTOR
* DATE 04/23/01
* Modeled at PSpice-ITeam nikkel
*
* connections:    Collector
*                 |  Base
*                 |  |  Emitter
*                 |  |  |
.SUBCKT ksd1413   1  2  3
*
Q1 1 2 4 Q1model
Q2 1 4 3 Q2model 1.929
D1 3 1 Dmodel
R1 2 4 1.000E6
R2 4 3 1.000E6
.MODEL Dmodel D
+ IS=10.00E-15 RS=1.000E-3 N=1 XTI=3
+  CJO=10.00E-21 VJ=1 M=.5 FC=.5
.MODEL Q1model NPN
+  RB=19.559 RC=0.1 BF=450 IKF=6  NK=1.199667
+  IS=628.4E-15  NF=1 VAF=100
+  ISE=6.934E-12 NE=1.390 BR=.1001
+  NR=1 VAR=100 IKR=1.001E-3 ISC=4.103E-9
+  NC=1.001 RE=0 EG=1.110
+  CJE=10.00E-12 VJE=.75 MJE=.33 TF=0.6e-7
+  XTF=1 VTF=10 ITF=10.00E-3 CJC=10.00E-12
+  VJC=.75 MJC=.33 XCJC=.9 FC=.5
+  TR=100E-10
.MODEL Q2model NPN
+  RB=19.559 RC=0.1 BF=450 IKF=6 NK=1.199667
+  IS=628.4E-15  NF=1 VAF=100
+  ISE=6.934E-12 NE=1.390 BR=.1001
+  NR=1 VAR=100 IKR=1.001E-3 ISC=4.103E-9
+  NC=1.001  RE=0 EG=1.110
+  CJE=10.00E-12 VJE=.75 MJE=.33 TF=1e-9
+  XTF=1 VTF=10 ITF=10.00E-3 CJC=0
+  VJC=.75 MJC=.33 XCJC=.9 FC=.5
+  TR=100E-10
.ENDS
*$
* ksd1417 Darlington Transistor "macromodel" subcircuit
* Manufacturer FAIRCHILD SEMICONDUCTOR
* DATE 04/23/01
* Modeled at PSpice-ITeam nikkel
*
* connections:    Collector
*                 |  Base
*                 |  |  Emitter
*                 |  |  |
.SUBCKT ksd1417   1  2  3
*
Q1 1 2 4 Q1model
Q2 1 4 3 Q2model 1.006
D1 3 1 Dmodel
R1 2 4 1.000E6
R2 4 3 1.000E6
.MODEL Dmodel D
+ IS=10.00E-15 RS=1.000E-3 N=1 XTI=3
+  CJO=10.00E-21 VJ=1 M=.5 FC=.5
.MODEL Q1model NPN
+  IS=3.746E-12 BF=450 NF=.988 VAF=100
+  IKF=7.7909 ISE=35.93E-12 NE=1.378 BR=.1001
+  NR=1 VAR=100 IKR=1.384 ISC=172.6E-12
+  NC=1.563 RB=2.492 NK=.731591
+  RE=0 RC=0 EG=1.110
+  CJE=10.00E-12 VJE=.75 MJE=.33 TF=10.000E-9
+  XTF=1 VTF=10 ITF=10.00E-3 CJC=10.00E-12
+  VJC=.75 MJC=.33 XCJC=.9 FC=.5
+  TR=47.00E-6
.MODEL Q2model NPN
+  IS=3.746E-12 BF=450 NF=.988 VAF=100
+  IKF=7.7909 ISE=35.93E-12 NE=1.378 BR=.1001
+  NR=1 VAR=100 IKR=1.384 ISC=172.6E-12
+  NC=1.563 RB=2.492 NK=.731591
+  RE=0 RC=0 EG=1.110
+  CJE=10.00E-12 VJE=.75 MJE=.33 TF=10.000E-9
+  XTF=1 VTF=10 ITF=10.00E-3 CJC=0
+  VJC=.75 MJC=.33 XCJC=.9 FC=.5
+  TR=47.00E-6
.ENDS
*$
* Motorola 350 Volt 20 Amp Darlington Transistor  07/20/98
*
* connections:    Collector
*                 |  Base
*                 |  |  Emitter
*                 |  |  |
.SUBCKT MJ10000   1  2  3
*
Q1 1 2 4 Q1model
Q2 1 4 3 Q2model 1.821
D1 3 1 Dmodel
D2 4 2 Dmodel
R1 2 4 100
R2 4 3 15
.MODEL Dmodel D
+ IS=303.82E-12
+ N=4.7736
+ RS=1.0000E-3
+ CJO=1.0000E-12
+ M=.3333
+ VJ=.75
+ ISR=100.00E-12
+ BV=437
+ IBV=1.00E-6
+ TT=5.0000E-9
.MODEL Q1model NPN
+  IS=83.95E-15 BF=140.4 NF=1 VAF=100
+  IKF=1.014 ISE=5.508E-12 NE=1.338 BR=.7915
+  NR=1 VAR=100 IKR=1.136 ISC=893.2E-12
+  NC=1.999 RB=0.240963 NK=.5374
+  RE=0 RC=0.124458 EG=1.110
+  CJE=2.000E-12 VJE=.75 MJE=.33 TF=30.0E-9
+  XTF=1 VTF=10 ITF=10.00E-3 CJC=821.5E-12
+  VJC=.35 MJC=.4135 XCJC=.9 FC=.5
+  TR=4.0E-6
.MODEL Q2model NPN
+  IS=83.95E-15 BF=140.4 NF=1 VAF=100
+  IKF=1.014 ISE=5.508E-12 NE=1.338 BR=.7915
+  NR=1 VAR=100 IKR=1.136 ISC=893.2E-12
+  NC=1.999 RB=0.240963 NK=.5374
+  RE=0 RC=0.124458 EG=1.110
+  CJE=2.000E-12 VJE=.75 MJE=.33 TF=30.0E-9
+  XTF=1 VTF=10 ITF=10.00E-3 CJC=0
+  VJC=.35 MJC=.4135 XCJC=.9 FC=.5
+  TR=4.0E-6
.ENDS
*$
* Motorola 400 Volt 20 Amp Darlington Transistor  07/20/98
*
* connections:    Collector
*                 |  Base
*                 |  |  Emitter
*                 |  |  |
.SUBCKT MJ10005   1  2  3
*
Q1 1 2 4 Q1model
Q2 1 4 3 Q2model 1.821
D1 3 1 Dmodel
D2 4 2 Dmodel
R1 2 4 100
R2 4 3 15
.MODEL Dmodel D
+ IS=303.82E-12
+ N=4.7736
+ RS=1.0000E-3
+ CJO=1.0000E-12
+ M=.3333
+ VJ=.75
+ ISR=100.00E-12
+ BV=500
+ IBV=1.00E-6
+ TT=5.0000E-9
.MODEL Q1model NPN
+  IS=83.95E-15 BF=140.4 NF=1 VAF=100
+  IKF=1.014 ISE=5.508E-12 NE=1.338 BR=.7915
+  NR=1 VAR=100 IKR=1.136 ISC=893.2E-12
+  NC=1.999 RB=0.240963 NK=.5374
+  RE=0 RC=0.124458 EG=1.110
+  CJE=2.000E-12 VJE=.75 MJE=.33 TF=30E-9
+  XTF=1 VTF=10 ITF=10.00E-3 CJC=821.5E-12
+  VJC=.35 MJC=.4135 XCJC=.9 FC=.5
+  TR=1.25E-6
.MODEL Q2model NPN
+  IS=83.95E-15 BF=140.4 NF=1 VAF=100
+  IKF=1.014 ISE=5.508E-12 NE=1.338 BR=.7915
+  NR=1 VAR=100 IKR=1.136 ISC=893.2E-12
+  NC=1.999 RB=0.240963 NK=.5374
+  RE=0 RC=0.124458 EG=1.110
+  CJE=2.000E-12 VJE=.75 MJE=.33 TF=30E-9
+  XTF=1 VTF=10 ITF=10.00E-3 CJC=0
+  VJC=.35 MJC=.4135 XCJC=.9 FC=.5
+  TR=1.25E-6
.ENDS
*$
* Motorola 400 Volt 10 Amp Darlington Transistor  07/20/98
*
* connections:    Collector
*                 |  Base
*                 |  |  Emitter
*                 |  |  |
.SUBCKT MJ10007   1  2  3
*
Q1 1 2 4 Q1model
Q2 1 4 3 Q2model 1.862
D1 3 1 Dmodel
D2 4 2 Dmodel
R1 2 4 100
R2 4 3 15
.MODEL Dmodel D
+ IS=16.833E-15
+ N=3.4748
+ RS=1.0000E-3
+ CJO=1.0000E-12
+ M=.3333
+ VJ=.75
+ ISR=100.00E-12
+ BV=500
+ IBV=1.00E-6
+ TT=5.0000E-9
.MODEL Q1model NPN
+  IS=38.94E-15 BF=15.45 NF=1 VAF=100
+  IKF=.5594 ISE=345.0E-15 NE=1.998 BR=69.93
+  NR=1 VAR=100 IKR=27.97 ISC=39.26E-15
+  NC=3.156 RB=.8899 NK=.3435
+  RE=0 RC=0 EG=1.110
+  CJE=10.00E-12 VJE=.75 MJE=.33 TF=47.000E-9
+  XTF=1 VTF=10 ITF=10.00E-3 CJC=462.5E-12
+  VJC=.1988 MJC=.3552 XCJC=.9 FC=.5
+  TR=10E-9
.MODEL Q2model NPN
+  IS=38.94E-15 BF=15.45 NF=1 VAF=100
+  IKF=.5594 ISE=345.0E-15 NE=1.998 BR=69.93
+  NR=1 VAR=100 IKR=27.97 ISC=39.26E-15
+  NC=3.156 RB=.8899 NK=.3435
+  RE=0 RC=0 EG=1.110
+  CJE=10.00E-12 VJE=.75 MJE=.33 TF=47.000E-9
+  XTF=1 VTF=10 ITF=10.00E-3 CJC=0
+  VJC=.1988 MJC=.3552 XCJC=.9 FC=.5
+  TR=10E-9
.ENDS
*$
* Motorola 500 Volt 20 Amp Darlington Transistor  07/20/98
*
* connections:    Collector
*                 |  Base
*                 |  |  Emitter
*                 |  |  |
.SUBCKT MJ10009   1  2  3
*
Q1 1 2 4 Q1model
Q2 1 4 3 Q2model 1.669
D1 3 1 Dmodel
D2 4 2 Dmodel
R1 2 4 100
R2 4 3 15
.MODEL Dmodel D
+ IS=303.82E-12
+ N=4.7736
+ RS=1.0000E-3
+ CJO=1.0000E-12
+ M=.3333
+ VJ=.75
+ ISR=100.00E-12
+ BV=625
+ IBV=1.00E-6
+ TT=5.0000E-9
.MODEL Q1model NPN
+  IS=149.9E-15 BF=84.51 NF=1 VAF=100
+  IKF=.5525 ISE=2.194E-12 NE=1.265 BR=1
+  NR=1 VAR=100 IKR=.1 ISC=100.0E-15
+  NC=2 RB=0.128221 NK=.4979
+  RE=0 RC=0.128228 EG=1.110
+  CJE=2.000E-12 VJE=.75 MJE=.33 TF=100.000E-9
+  XTF=1 VTF=10 ITF=10.00E-3 CJC=821.5E-12
+  VJC=.35 MJC=.4135 XCJC=.9 FC=.5
+  TR=1E-6
.MODEL Q2model NPN
+  IS=149.9E-15 BF=84.51 NF=1 VAF=100
+  IKF=.5525 ISE=2.194E-12 NE=1.265 BR=1
+  NR=1 VAR=100 IKR=.1 ISC=100.0E-15
+  NC=2 RB=0.128221 NK=.4979
+  RE=0 RC=0.128228 EG=1.110
+  CJE=2.000E-12 VJE=.75 MJE=.33 TF=100.000E-9
+  XTF=1 VTF=10 ITF=10.00E-3 CJC=0
+  VJC=.35 MJC=.4135 XCJC=.9 FC=.5
+  TR=1E-6
.ENDS
*$
* Motorola 400 Volt 10 Amp Darlington Transistor  07/20/98
*
* connections:    Collector
*                 |  Base
*                 |  |  Emitter
*                 |  |  |
.SUBCKT MJ10012   1  2  3
*
Q1 1 2 4 Q1model
Q2 1 4 3 Q2model .7739
D1 3 1 Dmodel
R1 2 4 1.000E3
R2 4 3 30
.MODEL Dmodel D
+ IS=2.4193E-9
+ N=3.4748
+ RS=1.0000E-3
+ CJO=1.0000E-12
+ M=.3333
+ VJ=.75
+ ISR=100.00E-12
+ BV=500
+ IBV=1.00E-6
+ TT=5.0000E-9
.MODEL Q1model NPN
+  IS=507.9E-15 BF=540.8 NF=1 VAF=100
+  IKF=3.031 ISE=3.816E-12 NE=1.270 BR=69.93
+  NR=1 VAR=100 IKR=27.97 ISC=626.5E-12
+  NC=3.197 RB=.15 NK=.6925
+  RE=0 RC=50.34E-3 EG=1.110
+  CJE=10.00E-12 VJE=.75 MJE=.33 TF=600.000E-9
+  XTF=1 VTF=10 ITF=10.00E-3 CJC=400.8E-12
+  VJC=.75 MJC=.3333 XCJC=.9 FC=.5
+  TR=100.000E-9
.MODEL Q2model NPN
+  IS=507.9E-15 BF=540.8 NF=1 VAF=100
+  IKF=3.031 ISE=3.816E-12 NE=1.270 BR=69.93
+  NR=1 VAR=100 IKR=27.97 ISC=626.5E-12
+  NC=3.197 RB=.15 NK=.6925
+  RE=0 RC=50.34E-3 EG=1.110
+  CJE=10.00E-12 VJE=.75 MJE=.33 TF=600.000E-9
+  XTF=1 VTF=10 ITF=10.00E-3 CJC=0
+  VJC=.75 MJC=.3333 XCJC=.9 FC=.5
+  TR=100.000E-9
.ENDS
*$
* Motorola 400 Volt 50 Amp Darlington Transistor  07/20/98
*
* connections:    Collector
*                 |  Base
*                 |  |  Emitter
*                 |  |  |
.SUBCKT MJ10015   1  2  3
*
Q1 1 2 4 Q1model
Q2 1 4 3 Q2model 14.96
D1 3 1 Dmodel
D2 4 2 Dmodel
R1 2 4 50
R2 4 3 8
.MODEL Dmodel D
+ IS=11.665E-12
+ N=3.4038
+ RS=1.0000E-3
+ CJO=1.0000E-12
+ M=.3333
+ VJ=.75
+ ISR=100.00E-12
+ BV=625
+ IBV=1.00E-6
+ TT=5.0000E-9
.MODEL Q1model NPN
+  IS=993.0E-18 BF=104.4 NF=1 VAF=100
+  IKF=.3882 ISE=387.2E-15 NE=1.372 BR=3.982
+  NR=1 VAR=100 IKR=13.46 ISC=197.3E-15
+  NC=1 RB=0.100134 NK=.5382
+  RE=0 RC=0.157858 EG=1.110
+  CJE=2.000E-12 VJE=.75 MJE=.33 TF=60.00E-9
+  XTF=1 VTF=10 ITF=10.00E-3 CJC=1.540E-9
+  VJC=.35 MJC=.3287 XCJC=.9 FC=.5
+  TR=50.00E-5
.MODEL Q2model NPN
+  IS=993.0E-18 BF=104.4 NF=1 VAF=100
+  IKF=.3882 ISE=387.2E-15 NE=1.372 BR=3.982
+  NR=1 VAR=100 IKR=13.46 ISC=197.3E-15
+  NC=1 RB=0.100134 NK=.5382
+  RE=0 RC=0.157858 EG=1.110
+  CJE=2.000E-12 VJE=.75 MJE=.33 TF=60.00E-9
+  XTF=1 VTF=10 ITF=10.00E-3 CJC=0
+  VJC=.35 MJC=.3287 XCJC=.9 FC=.5
+  TR=50.00E-5
.ENDS
*$
* Motorola 200 Volt 60 Amp Darlington Transistor  07/20/98
*
* connections:    Collector
*                 |  Base
*                 |  |  Emitter
*                 |  |  |
.SUBCKT MJ10020   1  2  3
*
Q1 1 2 4 Q1model
Q2 1 4 3 Q2model 6.456
D1 3 1 Dmodel
D2 4 2 Dmodel
R1 2 4 100
R2 4 3 15
.MODEL Dmodel D
+ IS=8.1946E-12
+ N=3.3012
+ RS=1.0000E-3
+ CJO=1.0000E-12
+ M=.3333
+ VJ=.75
+ ISR=100.00E-12
+ BV=312
+ IBV=1.00E-6
+ TT=5.0000E-9
.MODEL Q1model NPN
+  IS=94.11E-15 BF=431.2 NF=1 VAF=100
+  IKF=.9138 ISE=14.63E-12 NE=1.419 BR=1.085
+  NR=1 VAR=100 IKR=1.638 ISC=8.355E-9
+  NC=1.743 RB=0.322163 NK=.5678
+  RE=0 RC=0.117837 EG=1.110
+  CJE=2.000E-12 VJE=.75 MJE=.33 TF=50.00E-9
+  XTF=1 VTF=10 ITF=10.00E-3 CJC=1.892E-9
+  VJC=.35 MJC=.4422 XCJC=.9 FC=.5
+  TR=1.75E-6
.MODEL Q2model NPN
+  IS=94.11E-15 BF=431.2 NF=1 VAF=100
+  IKF=.9138 ISE=14.63E-12 NE=1.419 BR=1.085
+  NR=1 VAR=100 IKR=1.638 ISC=8.355E-9
+  NC=1.743 RB=0.322163 NK=.5678
+  RE=0 RC=0.117837 EG=1.110
+  CJE=2.000E-12 VJE=.75 MJE=.33 TF=50.00E-9
+  XTF=1 VTF=10 ITF=10.00E-3 CJC=0
+  VJC=.35 MJC=.4422 XCJC=.9 FC=.5
+  TR=1.75E-6
.ENDS
*$
* Motorola 350 Volt 40 Amp Darlington Transistor  07/20/98
*
* connections:    Collector
*                 |  Base
*                 |  |  Emitter
*                 |  |  |
.SUBCKT MJ10022   1  2  3
*
Q1 1 2 4 Q1model
Q2 1 4 3 Q2model 10.03
D1 3 1 Dmodel
D2 4 2 Dmodel
R1 2 4 100
R2 4 3 15
.MODEL Dmodel D