*LM335, LM235, LM135
*
.subckt MCP9701  GND VDD OUT T
R3 OUT OUT1 1
B1 OUT1 GND V=abs(V(T))*0.0195+0.4
R1 VDD OUT 10G
R2 T GND 1G
.ends MCP9701
