Version 4
SHEET 1 880 680
WIRE 80 112 -32 112
WIRE 496 112 448 112
WIRE 592 112 576 112
WIRE 592 128 592 112
WIRE 48 192 -32 192
WIRE 80 192 48 192
WIRE 496 192 448 192
WIRE 592 192 496 192
WIRE 496 208 496 192
WIRE 48 224 48 192
FLAG 48 224 0
FLAG 496 208 0
FLAG 592 112 outB
SYMBOL voltage -32 96 R0
WINDOW 3 -131 124 Left 2
WINDOW 123 0 0 Left 2
WINDOW 39 0 0 Left 2
SYMATTR InstName V1
SYMATTR Value SINE(0 10 50)
SYMBOL res 592 96 R90
WINDOW 0 0 56 VBottom 2
WINDOW 3 32 56 VTop 2
SYMATTR InstName R1
SYMATTR Value 200k
SYMBOL cap 576 128 R0
SYMATTR InstName C1
SYMATTR Value 20µ
SYMBOL addon\\Transformers\\transfo_real 352 160 R0
SYMATTR InstName U1
TEXT -164 248 Left 2 !.tran 0 600ms 500ms uic
