Version 4
SHEET 1 880 680
WIRE 416 -240 384 -240
WIRE 432 -240 416 -240
WIRE 640 -224 496 -224
WIRE 688 -224 640 -224
WIRE 688 -208 688 -224
WIRE 224 -176 -80 -176
WIRE 240 -176 224 -176
WIRE 432 -176 240 -176
WIRE 416 64 400 64
WIRE 432 64 416 64
WIRE 640 80 640 -224
WIRE 640 80 496 80
WIRE 240 128 240 -176
WIRE 432 128 240 128
WIRE 640 304 640 80
WIRE 640 304 496 304
WIRE 416 336 400 336
WIRE 432 336 416 336
WIRE 240 400 240 128
WIRE 432 400 240 400
FLAG 688 -128 0
FLAG 304 -240 0
FLAG 320 64 0
FLAG 416 -240 out1
FLAG 416 64 out2
FLAG 320 336 0
FLAG 416 336 out3
FLAG 432 -144 0
FLAG 432 160 0
FLAG 432 432 0
FLAG 224 -176 Command
FLAG -80 -96 0
SYMBOL addon\\relays\\rly_spdt 464 352 R0
SYMATTR InstName U1
SYMBOL addon\\relays\\rly_spst-nc 464 80 R0
SYMATTR InstName U2
SYMATTR Value RCOIL=100
SYMBOL addon\\relays\\rly_spst-no 464 -224 R0
WINDOW 3 84 36 Center 2
WINDOW 123 103 72 Center 2
SYMATTR InstName U3
SYMBOL voltage 688 -224 R0
WINDOW 123 0 0 Left 2
WINDOW 39 0 0 Left 2
SYMATTR InstName V1
SYMATTR Value 24
SYMBOL res 400 -256 R90
WINDOW 0 0 56 VBottom 2
WINDOW 3 32 56 VTop 2
SYMATTR InstName R1
SYMATTR Value 100
SYMBOL res 416 48 R90
WINDOW 0 0 56 VBottom 2
WINDOW 3 32 56 VTop 2
SYMATTR InstName R2
SYMATTR Value 100
SYMBOL res 416 320 R90
WINDOW 0 0 56 VBottom 2
WINDOW 3 32 56 VTop 2
SYMATTR InstName R3
SYMATTR Value 100
SYMBOL voltage -80 -192 R0
WINDOW 123 0 0 Left 2
WINDOW 39 0 0 Left 2
SYMATTR InstName V2
SYMATTR Value PULSE(0 20 0 0 0 10ms 20m)
TEXT -114 500 Left 2 !.tran 100ms
