Version 4
SHEET 1 1640 868
WIRE 208 32 160 32
WIRE 464 32 432 32
WIRE -144 64 -144 32
WIRE 208 96 176 96
WIRE 560 112 432 112
WIRE 672 112 560 112
WIRE -144 176 -144 144
WIRE 176 192 32 192
WIRE 208 192 176 192
WIRE 32 208 32 192
WIRE 464 208 432 208
WIRE 768 272 432 272
WIRE 208 288 160 288
WIRE 32 320 32 288
WIRE 768 320 768 272
WIRE -144 336 -144 304
WIRE 208 352 144 352
WIRE 464 352 432 352
WIRE 144 432 144 352
WIRE 560 432 560 112
WIRE 560 432 144 432
WIRE 768 432 768 400
WIRE -144 448 -144 416
WIRE 208 592 208 560
WIRE 336 592 336 560
WIRE 208 704 208 672
WIRE 336 704 336 672
WIRE 336 704 208 704
WIRE 208 736 208 704
FLAG 464 32 V+
IOPIN 464 32 In
FLAG 464 352 V-
IOPIN 464 352 In
FLAG 160 32 X1
FLAG 672 112 Out
IOPIN 672 112 Out
FLAG 208 736 0
FLAG 208 560 V+
IOPIN 208 560 In
FLAG 336 560 V-
IOPIN 336 560 In
FLAG -144 32 X1
FLAG -144 304 Y1
FLAG -144 176 0
FLAG -144 448 0
FLAG 176 192 SF
IOPIN 176 192 In
FLAG 176 96 0
FLAG 768 272 z2
FLAG 768 432 0
FLAG 32 320 V-
FLAG 464 208 0
FLAG 160 288 Y1
SYMBOL voltage 208 576 R0
SYMATTR InstName V+
SYMATTR Value 15
SYMBOL voltage 336 688 R180
WINDOW 0 -60 90 Left 2
WINDOW 3 -47 3 Left 2
SYMATTR InstName V-
SYMATTR Value 15
SYMBOL voltage -144 48 M0
WINDOW 0 -52 14 Left 2
WINDOW 3 -50 96 Left 2
WINDOW 123 0 0 Left 2
WINDOW 39 0 0 Left 2
SYMATTR InstName Vx
SYMATTR Value 5
SYMBOL voltage -144 320 R0
WINDOW 123 0 0 Left 2
WINDOW 39 0 0 Left 2
SYMATTR InstName Vy
SYMATTR Value 2
SYMBOL voltage 768 304 R0
WINDOW 123 0 0 Left 2
WINDOW 39 0 0 Left 2
SYMATTR InstName Vz2
SYMATTR Value SINE(0 1 1000 0 0 0 3)
SYMBOL res 16 192 R0
SYMATTR InstName R1
SYMATTR Value 5.4g
SYMBOL addon\\Analog\ Devices\\ad534 320 192 R0
SYMATTR InstName U1
TEXT -152 -112 Left 2 !.tran 10ms
TEXT -32 -120 Left 2 ;Rsf=5k4*SF/(10-SF)\nSF = 10*Rsf/(Rsf+5k4)
TEXT 112 -256 Center 2 ;AD534 Simplified Model\n(Divider Configuration)
TEXT -32 -160 Left 2 ;OUTPUT=10V*(Z2-Z1)/(X1-X2)+Y1        X1 > X2
RECTANGLE Normal 256 -192 -32 -288
