Version 4
SHEET 1 880 680
WIRE -304 64 -640 64
WIRE -256 64 -304 64
WIRE -192 64 -256 64
WIRE 32 64 -192 64
WIRE -256 96 -256 64
WIRE -64 96 -80 96
WIRE 32 96 32 64
WIRE 32 96 16 96
WIRE 48 96 32 96
WIRE 128 96 112 96
WIRE 144 96 128 96
WIRE 224 96 208 96
WIRE 240 96 224 96
WIRE 320 96 304 96
WIRE 336 96 320 96
WIRE 416 96 416 80
WIRE 416 96 400 96
WIRE 32 112 32 96
WIRE 128 112 128 96
WIRE -576 128 -624 128
WIRE -304 128 -304 64
WIRE -304 128 -352 128
WIRE 320 128 320 96
WIRE -192 144 -192 64
WIRE -80 160 -80 96
WIRE -32 160 -80 160
WIRE -576 192 -608 192
WIRE -272 192 -352 192
WIRE -256 192 -256 176
WIRE -256 192 -272 192
WIRE -80 192 -80 160
WIRE 416 208 416 96
WIRE 416 208 352 208
WIRE 32 224 32 208
WIRE 128 224 128 176
WIRE 128 224 32 224
WIRE 320 224 320 192
WIRE 320 224 128 224
WIRE 32 240 32 224
WIRE -576 256 -592 256
WIRE -336 256 -352 256
WIRE -240 256 -336 256
WIRE -80 272 -80 256
WIRE -80 272 -112 272
WIRE 224 272 224 96
WIRE 352 272 352 208
WIRE -80 288 -80 272
WIRE -32 288 -80 288
WIRE -640 320 -640 64
WIRE -576 320 -640 320
WIRE -304 320 -352 320
WIRE -272 320 -272 192
WIRE -176 320 -272 320
WIRE -240 336 -240 256
WIRE -304 352 -304 320
WIRE 416 352 416 208
WIRE 32 368 32 336
WIRE 64 368 32 368
WIRE -608 384 -608 192
WIRE -416 384 -608 384
WIRE -336 384 -336 256
WIRE -336 384 -416 384
WIRE 64 384 64 368
WIRE -592 416 -592 256
WIRE -512 416 -592 416
WIRE -416 416 -416 384
WIRE -416 416 -432 416
WIRE -624 448 -624 128
WIRE -304 448 -304 416
WIRE -304 448 -624 448
WIRE -240 448 -240 400
WIRE -240 448 -304 448
WIRE -192 448 -192 224
WIRE -192 448 -240 448
WIRE -112 448 -112 368
WIRE -112 448 -192 448
WIRE 32 448 32 368
WIRE 32 448 -112 448
WIRE 224 448 224 336
WIRE 224 448 32 448
WIRE 352 448 352 352
WIRE 352 448 224 448
WIRE 416 448 416 416
WIRE 416 448 352 448
FLAG 64 384 0
FLAG 416 80 Out
IOPIN 416 80 Out
SYMBOL schottky 48 112 R270
WINDOW 0 32 32 VTop 0
WINDOW 3 0 32 Invisible 0
SYMATTR InstName D1
SYMATTR Value MBRS340
SYMATTR Description Diode
SYMATTR Type diode
SYMBOL schottky 144 112 R270
WINDOW 0 32 32 VTop 0
WINDOW 3 0 32 Invisible 0
SYMATTR InstName D2
SYMATTR Value MBRS340
SYMATTR Description Diode
SYMATTR Type diode
SYMBOL schottky 240 112 R270
WINDOW 0 32 32 VTop 0
WINDOW 3 0 32 Invisible 0
SYMATTR InstName D3
SYMATTR Value MBRS340
SYMATTR Description Diode
SYMATTR Type diode
SYMBOL schottky 336 112 R270
WINDOW 0 32 32 VTop 0
WINDOW 3 0 32 Invisible 0
SYMATTR InstName D4
SYMATTR Value MBRS340
SYMATTR Description Diode
SYMATTR Type diode
SYMBOL polcap 112 112 R0
WINDOW 3 37 62 Left 0
WINDOW 0 38 33 Left 0
SYMATTR Value 4µ7
SYMATTR InstName C1
SYMATTR Description Capacitor
SYMATTR Type cap
SYMATTR SpiceLine V=6.3 Irms=0 Rser=0.003 MTBF=0 Lser=0 mfg="TDK" pn="C2012X5ROJ475M" type="X5R" ppPkg=1
SYMBOL polcap 208 272 R0
WINDOW 3 39 60 Left 0
WINDOW 0 39 34 Left 0
SYMATTR Value 4µ7
SYMATTR InstName C2
SYMATTR Description Capacitor
SYMATTR Type cap
SYMATTR SpiceLine V=6.3 Irms=0 Rser=0.003 MTBF=0 Lser=0 mfg="TDK" pn="C2012X5ROJ475M" type="X5R" ppPkg=1
SYMBOL polcap 304 128 R0
WINDOW 3 39 62 Left 0
WINDOW 0 38 34 Left 0
SYMATTR Value 10µ
SYMATTR InstName C3
SYMATTR Description Capacitor
SYMATTR Type cap
SYMATTR SpiceLine V=6.3 Irms=0 Rser=0.001 MTBF=0 Lser=0 mfg="TDK" pn="C3216X5ROJ106M" type="X5R" ppPkg=1
SYMBOL polcap 400 352 R0
WINDOW 3 -34 60 Left 0
WINDOW 0 -36 35 Left 0
SYMATTR Value 22µ
SYMATTR InstName C4
SYMATTR Description Capacitor
SYMATTR Type cap
SYMATTR SpiceLine V=6.3 Irms=0 Rser=0.0008 MTBF=0 Lser=0 mfg="TDK" pn="C3225X5ROJ226M" type="X5R" ppPkg=1
SYMBOL npn3 -32 112 R0
SYMATTR InstName Q1
SYMATTR Value BDX35
SYMBOL pnp2 -32 336 M180
SYMATTR InstName Q2
SYMATTR Value BDX78
SYMBOL res 32 80 R90
WINDOW 0 16 115 VBottom 0
WINDOW 3 32 56 VTop 0
SYMATTR InstName R1
SYMATTR Value 12
SYMATTR SpiceLine tol=1 pwr=0.1
SYMBOL diode -96 192 R0
SYMATTR InstName D5
SYMBOL Misc\\battery -192 128 R0
WINDOW 0 -35 7 Left 0
WINDOW 3 10 8 Left 0
WINDOW 123 0 0 Left 0
WINDOW 39 64 -28 VRight 0
SYMATTR InstName V1
SYMATTR Value 6.6
SYMATTR SpiceLine Rser=10m
SYMBOL cap -256 336 R0
WINDOW 0 -20 53 Left 0
WINDOW 3 -42 79 Left 0
SYMATTR InstName C5
SYMATTR Value 150p
SYMBOL res -416 400 R90
WINDOW 0 17 155 VBottom 0
WINDOW 3 -10 112 VTop 0
SYMATTR InstName R2
SYMATTR Value 10K
SYMATTR SpiceLine tol=1 pwr=0.1
SYMBOL cap -320 352 R0
WINDOW 0 -29 53 Left 0
WINDOW 3 -30 79 Left 0
SYMATTR InstName C6
SYMATTR Value 10n
SYMBOL res -240 192 R180
WINDOW 0 64 15 VBottom 0
WINDOW 3 32 56 VTop 0
SYMATTR InstName R4
SYMATTR Value 330
SYMATTR SpiceLine tol=1 pwr=0.1
SYMBOL res 336 256 R0
WINDOW 0 23 47 Left 0
WINDOW 3 27 84 Left 0
SYMATTR InstName R3
SYMATTR Value 10
SYMATTR SpiceLine tol=1 pwr=15
SYMBOL npn3 -176 272 R0
SYMATTR InstName Q3
SYMATTR Value BC368
SYMBOL 555_ALL -416 240 R0
SYMATTR InstName U1
SYMATTR SpiceLine VDD=6.56  RONX=1
TEXT 38 418 Left 0 !.tran 1m startup
TEXT -640 32 Left 0 ;Si el modelo es el TLC555 de Helmut, agregar en Spice Line: VDD=6.56  RONX=1
