Version 4
SHEET 1 880 680
WIRE -112 -128 -160 -128
WIRE -64 -128 -112 -128
WIRE 176 -64 16 -64
WIRE 448 -64 240 -64
WIRE -160 -32 -160 -48
WIRE -128 -32 -160 -32
WIRE 16 32 16 -64
WIRE 160 32 16 32
WIRE 448 32 448 -64
WIRE 448 32 240 32
WIRE -112 48 -160 48
WIRE 304 96 192 96
WIRE 304 128 304 96
WIRE 64 160 48 160
WIRE 80 160 64 160
WIRE 80 176 80 160
WIRE 240 176 192 176
WIRE -176 192 -192 192
WIRE -160 192 -176 192
WIRE -64 192 -96 192
WIRE 16 192 16 32
WIRE 48 192 16 192
WIRE -192 208 -192 192
WIRE 192 208 192 176
WIRE 192 208 112 208
WIRE 48 224 -16 224
WIRE 304 240 304 224
WIRE 448 240 448 32
WIRE 448 240 304 240
WIRE 464 240 448 240
WIRE 448 256 448 240
WIRE 64 272 48 272
WIRE 80 272 80 240
WIRE 80 272 64 272
WIRE 192 288 192 208
WIRE 240 288 192 288
WIRE -192 304 -192 288
WIRE -16 304 -16 224
WIRE 304 368 304 336
WIRE 304 368 192 368
WIRE 448 368 448 336
FLAG -192 304 0
FLAG -128 -32 0
FLAG 64 160 vcc
FLAG -112 -128 vcc
FLAG -112 48 vee
FLAG 64 272 vee
FLAG -176 192 in
FLAG 304 96 vcc
FLAG 304 368 vee
FLAG 464 240 out
FLAG 448 368 0
FLAG -16 304 0
SYMBOL OpAmp.Add\\OPAMP1_all 80 144 R0
WINDOW 0 -17 64 Left 0
WINDOW 38 16 105 Left 0
SYMATTR InstName U1
SYMATTR SpiceModel LF411
SYMBOL voltage -160 -144 R0
WINDOW 123 0 0 Left 0
WINDOW 39 0 0 Left 0
WINDOW 0 31 43 Left 0
WINDOW 3 33 68 Left 0
SYMATTR InstName V2
SYMATTR Value 15
SYMBOL voltage -160 -48 R0
WINDOW 123 0 0 Left 0
WINDOW 39 0 0 Left 0
WINDOW 0 30 48 Left 0
WINDOW 3 32 72 Left 0
SYMATTR InstName V1
SYMATTR Value 15
SYMBOL voltage -192 192 R0
WINDOW 123 28 124 Left 0
WINDOW 39 0 0 Left 0
WINDOW 0 -64 54 Left 0
WINDOW 3 5 93 Left 0
SYMATTR InstName V4
SYMATTR Value SINE(0 0.3 1k)
SYMBOL res 32 176 R90
WINDOW 0 0 56 VBottom 0
WINDOW 3 25 86 VTop 0
SYMATTR InstName R1
SYMATTR Value 1k
SYMBOL res 256 16 R90
WINDOW 0 0 56 VBottom 0
WINDOW 3 32 56 VTop 0
SYMATTR InstName R2
SYMATTR Value 33k
SYMBOL cap -96 176 R90
WINDOW 0 0 32 VBottom 0
WINDOW 3 32 32 VTop 0
SYMATTR InstName C1
SYMATTR Value 2.2µ
SYMBOL cap 240 -80 R90
WINDOW 0 0 32 VBottom 0
WINDOW 3 32 32 VTop 0
SYMATTR InstName C2
SYMATTR Value 220p
SYMBOL res 432 240 R0
SYMATTR InstName R7
SYMATTR Value 150
SYMBOL npn 240 128 R0
SYMATTR InstName Q1
SYMATTR Value 2N2222
SYMBOL pnp 240 336 M180
WINDOW 0 53 38 Left 0
WINDOW 3 43 60 Left 0
SYMATTR InstName Q2
SYMATTR Value BCW68F
TEXT -200 352 Left 0 !.tran 10ms
