Version 4
SHEET 1 880 680
WIRE -96 80 -112 80
WIRE 80 80 48 80
WIRE 112 80 80 80
WIRE 272 80 192 80
WIRE -224 112 -272 112
WIRE -176 112 -224 112
WIRE 176 144 160 144
WIRE 176 176 176 144
WIRE 112 192 96 192
WIRE 144 192 112 192
WIRE -272 208 -272 192
WIRE -240 208 -272 208
WIRE -112 208 -112 160
WIRE 240 208 208 208
WIRE 272 208 272 80
WIRE 272 208 240 208
WIRE 352 208 272 208
WIRE 80 224 80 80
WIRE 144 224 80 224
WIRE -224 288 -272 288
WIRE 160 288 144 288
WIRE 176 288 176 240
WIRE 176 288 160 288
FLAG -240 208 0
FLAG 240 208 out
FLAG 160 144 vcc
FLAG -224 112 vcc
FLAG -224 288 vee
FLAG 160 288 vee
FLAG -96 80 in
FLAG -112 208 0
FLAG -32 80 0
FLAG 112 192 in
SYMBOL OpAmp.Add\\OPAMP1_all 176 144 R0
WINDOW 0 -20 66 Left 0
WINDOW 38 12 113 Left 0
SYMATTR InstName U1
SYMATTR SpiceModel LM741/NS
SYMBOL voltage -272 96 R0
WINDOW 123 0 0 Left 0
WINDOW 39 0 0 Left 0
WINDOW 0 36 42 Left 0
WINDOW 3 37 67 Left 0
SYMATTR InstName V2
SYMATTR Value 15
SYMBOL voltage -272 192 R0
WINDOW 123 0 0 Left 0
WINDOW 39 0 0 Left 0
WINDOW 0 31 48 Left 0
WINDOW 3 30 69 Left 0
SYMATTR InstName V1
SYMATTR Value 15
SYMBOL voltage -112 64 R0
WINDOW 123 -39 144 Left 0
WINDOW 39 0 0 Left 0
WINDOW 0 32 63 Left 0
WINDOW 3 -49 117 Left 0
SYMATTR InstName V4
SYMATTR Value SINE(0 10 100)
SYMBOL res 64 64 R90
WINDOW 0 0 56 VBottom 0
WINDOW 3 32 56 VTop 0
SYMATTR InstName R1
SYMATTR Value 1k
SYMBOL res 208 64 R90
WINDOW 0 0 56 VBottom 0
WINDOW 3 32 56 VTop 0
SYMATTR InstName R2
SYMATTR Value 8.1k
TEXT -96 256 Left 0 !.tran 50m
