Version 4
SHEET 1 2760 2144
WIRE -48 -112 -224 -112
WIRE 176 -112 -48 -112
WIRE 528 -112 176 -112
WIRE -48 -64 -48 -112
WIRE -48 48 -48 16
WIRE 80 48 -48 48
WIRE 560 48 80 48
WIRE 592 80 208 80
WIRE -224 96 -224 -112
WIRE -48 96 -48 48
WIRE 80 96 80 48
WIRE 272 144 240 144
WIRE 528 144 528 -112
WIRE 528 144 496 144
WIRE -48 208 -48 176
WIRE 80 208 80 160
WIRE 80 208 -48 208
WIRE 208 208 208 80
WIRE 208 208 80 208
WIRE 272 208 208 208
WIRE 560 208 560 48
WIRE 560 208 496 208
WIRE -48 272 -48 208
WIRE 272 272 144 272
WIRE 592 272 592 80
WIRE 592 272 496 272
WIRE 176 336 176 -112
WIRE 272 336 176 336
WIRE 560 336 496 336
WIRE 560 352 560 336
WIRE -224 432 -224 176
WIRE -48 432 -48 336
WIRE -48 432 -224 432
WIRE 240 432 240 144
WIRE 240 432 -48 432
WIRE 560 432 560 416
WIRE 560 432 240 432
WIRE -224 464 -224 432
FLAG -224 464 0
FLAG 144 272 out
IOPIN 144 272 Out
FLAG -224 -112 VDD
SYMBOL res -64 -80 R0
SYMATTR InstName R21
SYMATTR Value 10k
SYMBOL res -64 80 R0
SYMATTR InstName R22
SYMATTR Value 10k
SYMBOL cap -64 272 R0
SYMATTR InstName C21
SYMATTR Value 0.1µ
SYMBOL voltage -224 80 R0
SYMATTR InstName V1
SYMATTR Value 5
SYMBOL cap 544 352 R0
SYMATTR InstName C22
SYMATTR Value 1n
SYMBOL diode 64 96 R0
SYMATTR InstName D1
SYMATTR Value 1N4148
SYMBOL TLC55X 384 240 R0
SYMATTR InstName U1
TEXT -256 -200 Left 0 !.tran 0 10m 0 1u uic
TEXT 88 -240 Left 0 ;Helmut Sennewald 13.06.2010\nVersion 2.0\nTest Circuit With The Model TLC555.txt from TI\nRequires TLC555_mod.txt in the schematic folder!
