Version 4
SHEET 1 880 680
WIRE 176 144 176 112
WIRE 176 144 -160 144
WIRE 496 144 176 144
WIRE 640 144 496 144
WIRE 176 192 176 144
WIRE -160 256 -160 144
WIRE 640 288 640 144
WIRE 496 304 496 144
WIRE 176 320 176 272
WIRE 368 320 176 320
WIRE 368 352 368 320
WIRE 176 400 176 320
WIRE -160 464 -160 336
WIRE 80 464 -160 464
WIRE 368 464 368 432
WIRE 368 464 272 464
WIRE 496 464 496 368
WIRE 496 464 368 464
WIRE 640 464 640 368
WIRE 640 464 496 464
WIRE 688 464 640 464
WIRE 80 480 80 464
WIRE 96 480 80 480
WIRE 272 480 272 464
WIRE 272 480 256 480
FLAG 688 464 out
IOPIN 688 464 Out
FLAG 176 112 0
SYMBOL res 352 448 M180
WINDOW 0 36 76 Left 2
WINDOW 3 36 40 Left 2
SYMATTR InstName R1
SYMATTR Value 240
SYMBOL res 160 288 M180
WINDOW 0 36 76 Left 2
WINDOW 3 36 40 Left 2
SYMATTR InstName R2
SYMATTR Value 2k
SYMBOL cap 480 368 M180
WINDOW 0 24 64 Left 2
WINDOW 3 24 8 Left 2
SYMATTR InstName C1
SYMATTR Value 10µ
SYMBOL voltage -160 352 M180
WINDOW 0 24 104 Left 2
WINDOW 3 24 16 Left 2
SYMATTR InstName V1
SYMATTR Value -22
SYMBOL res 624 272 R0
SYMATTR InstName R3
SYMATTR Value 2k
SYMBOL addon\\References\\lm317 176 464 R180
SYMATTR InstName U1
TEXT -168 72 Left 2 !.op
TEXT -64 80 Left 2 !.tran 1m
LINE Normal 251 514 247 502
