Version 4
SHEET 1 880 680
WIRE 240 -256 -32 -256
WIRE 416 -240 384 -240
WIRE 432 -240 416 -240
WIRE 640 -224 496 -224
WIRE 688 -224 640 -224
WIRE 688 -208 688 -224
WIRE 240 -176 240 -256
WIRE 432 -176 240 -176
WIRE 144 -144 -112 -144
WIRE 432 -144 144 -144
WIRE -112 -112 -112 -144
WIRE -160 -32 -480 -32
WIRE -480 -16 -480 -32
WIRE 416 64 400 64
WIRE 432 64 416 64
WIRE 640 80 640 -224
WIRE 640 80 496 80
WIRE 240 128 240 -176
WIRE 432 128 240 128
WIRE 144 160 144 -144
WIRE 432 160 144 160
WIRE 640 304 640 80
WIRE 640 304 496 304
WIRE 416 336 400 336
WIRE 432 336 416 336
WIRE 240 400 240 128
WIRE 432 400 240 400
WIRE 144 432 144 160
WIRE 432 432 144 432
FLAG 688 -128 0
FLAG 304 -240 0
FLAG 320 64 0
FLAG 416 -240 out1
FLAG 416 64 out2
FLAG 320 336 0
FLAG 416 336 out3
FLAG -480 64 0
FLAG -112 -16 0
FLAG -32 -176 0
FLAG 144 -144 VDS
SYMBOL addon\\relays\\rly_spdt 464 352 R0
SYMATTR InstName U1
SYMBOL addon\\relays\\rly_spst-nc 464 80 R0
SYMATTR InstName U2
SYMBOL addon\\relays\\rly_spst-no 464 -224 R0
WINDOW 3 84 36 Center 2
WINDOW 123 103 72 Center 2
SYMATTR InstName U3
SYMBOL voltage 688 -224 R0
WINDOW 123 0 0 Left 2
WINDOW 39 0 0 Left 2
SYMATTR InstName V1
SYMATTR Value 24
SYMBOL res 400 -256 R90
WINDOW 0 0 56 VBottom 2
WINDOW 3 32 56 VTop 2
SYMATTR InstName R1
SYMATTR Value 100
SYMBOL res 416 48 R90
WINDOW 0 0 56 VBottom 2
WINDOW 3 32 56 VTop 2
SYMATTR InstName R2
SYMATTR Value 100
SYMBOL res 416 320 R90
WINDOW 0 0 56 VBottom 2
WINDOW 3 32 56 VTop 2
SYMATTR InstName R3
SYMATTR Value 100
SYMBOL voltage -480 -32 R0
WINDOW 123 0 0 Left 2
WINDOW 39 0 0 Left 2
SYMATTR InstName V2
SYMATTR Value PULSE(0 12 0 0 0 10ms 30m)
SYMBOL voltage -32 -272 R0
WINDOW 123 0 0 Left 2
WINDOW 39 0 0 Left 2
SYMATTR InstName V3
SYMATTR Value 12V
SYMBOL nmos -160 -112 R0
SYMATTR InstName M1
SYMATTR Value AO6408
TEXT -112 504 Left 2 !.tran 100ms
TEXT -616 248 Left 2 ;Commande de relais  sans diodes de roue libre...
