Version 4
SHEET 1 1560 680
WIRE 1216 -32 1008 -32
WIRE 576 -16 448 -16
WIRE 784 -16 640 -16
WIRE 1216 0 1216 -32
WIRE 448 96 448 -16
WIRE 448 96 224 96
WIRE 496 96 448 96
WIRE 784 96 784 -16
WIRE 784 96 720 96
WIRE 1008 112 1008 -32
WIRE 1216 112 1216 80
WIRE 496 192 336 192
WIRE 832 192 720 192
WIRE 960 192 912 192
WIRE 784 208 784 96
WIRE 496 288 464 288
WIRE 784 288 784 272
WIRE 784 288 720 288
WIRE 1008 288 1008 208
WIRE 1008 288 784 288
WIRE 1072 288 1008 288
WIRE 1216 288 1152 288
WIRE 1312 288 1216 288
WIRE 1360 288 1312 288
WIRE 224 304 224 96
WIRE 336 304 336 192
WIRE 1360 336 1360 288
WIRE 1216 352 1216 288
WIRE 1008 368 1008 288
WIRE 224 464 224 384
WIRE 336 464 336 384
WIRE 336 464 224 464
WIRE 464 464 464 288
WIRE 464 464 336 464
WIRE 1008 464 1008 432
WIRE 1008 464 464 464
WIRE 1216 464 1216 416
WIRE 1216 464 1008 464
WIRE 1360 464 1360 416
WIRE 1360 464 1216 464
WIRE 224 480 224 464
FLAG 224 480 0
FLAG 1216 112 0
FLAG 1312 288 out
SYMBOL voltage 1216 -16 R0
SYMATTR InstName V1
SYMATTR Value 48
SYMBOL voltage 336 288 R0
WINDOW 123 0 0 Left 2
WINDOW 39 0 0 Left 2
SYMATTR InstName V2
SYMATTR Value PULSE(12 0 0 10n 10n 2.5u 10u)
SYMBOL schottky 992 432 M180
WINDOW 0 24 72 Left 2
WINDOW 3 24 0 Left 2
SYMATTR InstName D1
SYMATTR Value MBRS360
SYMATTR Description Diode
SYMATTR Type diode
SYMBOL ind 1056 304 R270
WINDOW 0 32 56 VTop 2
WINDOW 3 5 56 VBottom 2
WINDOW 39 -23 56 VBottom 2
SYMATTR InstName L1
SYMATTR Value 200µ
SYMATTR SpiceLine Rser=0.2
SYMBOL cap 1200 352 R0
WINDOW 39 24 92 Left 2
SYMATTR SpiceLine Rser=0.1
SYMATTR InstName C1
SYMATTR Value 220µ
SYMBOL voltage 224 288 R0
SYMATTR InstName V3
SYMATTR Value 12
SYMBOL res 1344 320 R0
SYMATTR InstName R1
SYMATTR Value 10
SYMBOL res 816 208 R270
WINDOW 0 32 56 VTop 2
WINDOW 3 0 56 VBottom 2
SYMATTR InstName R2
SYMATTR Value 5
SYMBOL nmos 960 112 R0
SYMATTR InstName M1
SYMATTR Value FDS5690
SYMBOL cap 768 208 R0
SYMATTR InstName C3
SYMATTR Value 100n
SYMBOL schottky 576 0 R270
WINDOW 0 32 32 VTop 2
WINDOW 3 0 32 VBottom 2
SYMATTR InstName D2
SYMATTR Value 30BQ060
SYMATTR Description Diode
SYMATTR Type diode
SYMBOL addon\\driver_MOS\\IR2118 608 192 R0
SYMATTR InstName U1
TEXT 224 -96 Left 2 !.tran 0 3m 0 100n
TEXT 224 -168 Left 2 ;Use the Alternate solver\nControl Panel -> SPICE -> Solver: Alternate
