Version 4
SHEET 1 880 680
WIRE -96 0 -144 0
WIRE 208 0 -96 0
WIRE 464 0 416 0
WIRE 512 0 464 0
WIRE -144 32 -144 0
WIRE 512 32 512 0
WIRE 208 48 208 0
WIRE 80 128 48 128
WIRE 384 128 352 128
WIRE -144 144 -144 112
WIRE 512 144 512 112
WIRE 48 160 48 128
WIRE 384 192 384 128
WIRE 384 192 352 192
WIRE 464 192 384 192
WIRE 576 192 464 192
WIRE 576 240 576 192
WIRE -96 272 -144 272
WIRE 80 272 -96 272
WIRE 416 272 416 0
WIRE 416 272 352 272
WIRE -144 304 -144 272
WIRE 384 336 352 336
WIRE 576 352 576 320
WIRE -144 416 -144 384
WIRE 384 416 384 336
WIRE 224 432 224 400
FLAG -96 272 in
FLAG 576 352 0
FLAG 464 192 out
FLAG -144 416 0
FLAG 224 432 0
FLAG -96 0 VCC
FLAG -144 144 0
FLAG 464 0 REF
FLAG 512 144 0
FLAG 384 416 0
FLAG 48 160 0
SYMBOL voltage -144 288 R0
WINDOW 3 -22 182 Left 2
WINDOW 123 0 0 Left 2
WINDOW 39 0 0 Left 2
SYMATTR Value PULSE(-10 10 10u 0.1u 0.1u 49.9u 100u)
SYMATTR InstName V1
SYMBOL res 560 224 R0
SYMATTR InstName RL
SYMATTR Value 10k
SYMBOL voltage -144 16 R0
WINDOW 123 0 0 Left 2
WINDOW 39 0 0 Left 2
SYMATTR InstName V2
SYMATTR Value 5
SYMBOL voltage 512 16 R0
WINDOW 123 0 0 Left 2
WINDOW 39 0 0 Left 2
SYMATTR InstName V3
SYMATTR Value 5
SYMBOL addon\\Opamps\\Instrumentation\\INA159 208 192 R0
SYMATTR InstName U1
TEXT -136 -96 Left 2 !.tran 0.2m
TEXT -136 -64 Left 2 !.options plotwinsize=0
