Version 4
SHEET 1 880 680
WIRE 224 112 224 96
WIRE 144 144 64 144
WIRE 176 144 144 144
WIRE 368 144 288 144
WIRE -64 160 -64 144
WIRE 64 160 64 144
WIRE 224 192 224 176
WIRE -64 256 -64 240
WIRE 64 256 64 240
FLAG 224 192 0
FLAG 224 96 V+
FLAG 64 256 0
FLAG -64 256 0
FLAG -64 144 V+
FLAG 144 144 in
FLAG 368 144 out
IOPIN 368 144 Out
SYMBOL voltage 64 144 R0
SYMATTR InstName V1
SYMATTR Value 0
SYMBOL voltage -64 144 R0
SYMATTR InstName V2
SYMATTR Value 9
SYMBOL addon\\Digital\\CD4000\\CD4069UB 224 80 R0
SYMATTR InstName U1
TEXT -80 24 Left 2 !.dc V1 0 9 .01
