Version 4
SHEET 1 880 680
WIRE -1392 -560 -1536 -560
WIRE -1312 -544 -1312 -560
WIRE -1392 -528 -1392 -560
WIRE -1376 -528 -1392 -528
WIRE -1408 -512 -1440 -512
WIRE -1408 -496 -1408 -512
WIRE -1376 -496 -1408 -496
WIRE -1536 -480 -1616 -480
WIRE -1232 -480 -1248 -480
WIRE -1200 -480 -1232 -480
WIRE -1616 -464 -1616 -480
WIRE -1376 -464 -1408 -464
WIRE -1408 -432 -1408 -464
WIRE -1408 -432 -1440 -432
WIRE -1376 -432 -1392 -432
WIRE -1392 -400 -1392 -432
WIRE -1392 -400 -1536 -400
WIRE -1344 -400 -1344 -416
WIRE -1280 -400 -1280 -416
WIRE -1232 -384 -1232 -400
WIRE -1616 -368 -1616 -384
WIRE -1520 -336 -1520 -352
WIRE -1424 -336 -1424 -352
WIRE -1520 -240 -1520 -256
WIRE -1424 -240 -1424 -256
FLAG -1520 -240 0
FLAG -1424 -240 0
FLAG -1520 -352 VAN+
FLAG -1424 -352 VAN-
FLAG -1280 -400 0
FLAG -1344 -400 VAN-
FLAG -1312 -560 VAN+
FLAG -1232 -384 0
FLAG -1200 -480 Vout
IOPIN -1200 -480 Out
FLAG -1616 -368 0
FLAG -1616 -480 VCOM
SYMBOL voltage -1520 -352 R0
WINDOW 3 -6 65 Left 0
WINDOW 123 0 0 Left 0
WINDOW 39 0 0 Left 0
WINDOW 0 -6 51 Left 0
SYMATTR Value 15
SYMATTR InstName V3
SYMBOL voltage -1424 -352 R0
WINDOW 3 -7 67 Left 0
WINDOW 123 0 0 Left 0
WINDOW 39 0 0 Left 0
WINDOW 0 -6 52 Left 0
SYMATTR Value -15
SYMATTR InstName V4
SYMBOL MyStuff\\INA129E -1312 -480 R0
SYMATTR InstName U3
SYMBOL res -1248 -496 R0
WINDOW 3 38 84 VLeft 0
SYMATTR Value 1000K
SYMATTR InstName R5
SYMBOL voltage -1616 -480 R0
WINDOW 3 -7 67 Left 0
WINDOW 123 0 0 Left 0
WINDOW 39 0 0 Left 0
WINDOW 0 -5 51 Left 0
SYMATTR Value 2.5
SYMATTR InstName V6
SYMBOL voltage -1536 -576 R0
WINDOW 3 -43 63 Left 0
WINDOW 123 0 0 Left 0
WINDOW 39 -43 75 Left 0
WINDOW 0 9 48 Left 0
SYMATTR Value SINE(0 0.05 100)
SYMATTR SpiceLine Rser=50
SYMATTR InstName V7
SYMBOL voltage -1536 -496 R0
WINDOW 3 -40 60 Left 0
WINDOW 123 0 0 Left 0
WINDOW 39 -40 72 Left 0
WINDOW 0 10 43 Left 0
SYMATTR Value SINE(0 0.05 100)
SYMATTR SpiceLine Rser=50
SYMATTR InstName V8
SYMBOL res -1456 -528 R0
WINDOW 0 3 56 VLeft 0
WINDOW 3 18 63 VLeft 0
SYMATTR InstName Rg
SYMATTR Value 5.49K
TEXT -1656 -576 Left 0 !.tran 100m
TEXT -1656 -592 Left 0 ;Gain = 1+49.4K/Rg
