Version 4
SHEET 1 880 680
WIRE -16 208 -288 208
WIRE 144 208 144 192
WIRE 144 208 48 208
WIRE 224 208 144 208
WIRE 576 208 576 192
WIRE 576 208 480 208
WIRE 704 208 576 208
WIRE 576 240 576 208
WIRE -16 256 -128 256
WIRE -16 272 -16 256
WIRE 144 272 -16 272
WIRE -144 288 -288 288
WIRE -128 288 -128 256
WIRE -128 288 -144 288
WIRE 144 288 144 272
WIRE -144 304 -144 288
WIRE 704 304 704 288
WIRE 704 304 576 304
WIRE 352 320 352 304
WIRE 576 320 576 304
FLAG 144 288 0
FLAG 352 320 0
FLAG 576 320 0
FLAG 576 192 vout
IOPIN 576 192 Out
FLAG 144 192 Vin
IOPIN 144 192 Out
SYMBOL polcap 128 208 R0
WINDOW 3 16 53 Left 2
WINDOW 0 39 18 Left 2
SYMATTR Value 1800µ
SYMATTR InstName C1
SYMATTR Description Capacitor
SYMATTR Type cap
SYMATTR SpiceLine V=25 Irms=2.07 Rser=0.028 MTBF=10000 Lser=0 mfg="United Chemi-Con" pn="LXF25VB182M16X25LL" type="Al electrolytic" ppPkg=1
SYMBOL cap 560 240 R0
WINDOW 3 37 29 Left 2
SYMATTR Value 100n
SYMATTR InstName C2
SYMBOL voltage -288 192 R0
WINDOW 123 0 0 Left 2
WINDOW 39 0 0 Left 2
WINDOW 3 35 47 Left 2
SYMATTR Value SINE(0 15 50)
SYMATTR InstName V1
SYMBOL res 688 192 R0
SYMATTR InstName R1
SYMATTR Value 10
SYMBOL addon\\References\\78XX 352 208 R0
SYMATTR InstName U3
SYMBOL diode -16 224 R270
WINDOW 0 32 32 VTop 2
WINDOW 3 0 32 VBottom 2
SYMATTR InstName D1
SYMATTR Value 1N4007
TEXT -312 376 Left 2 !.tran 200m uic
TEXT 32 400 Left 2 !.MEASURE AVG_VIN AVG(V(VIN)) from 20ms to 200ms\n.MEASURE RMS_Vpn RMS(V(vp,vn)) from 20ms to 200ms\n.MEASURE RMS_I(v1) RMS(I(V1)) from 20ms to 200ms\n.MEASURE AVG_PIN AVG(-V(vp,vn)*I(V1)) from 20ms to 200ms\n.MEASURE AVG_PDIODE AVG(V(vin)*I(V2)) from 20ms to 200ms\n.MEASURE AVG_POUT AVG(V(vout)*I(R1)) from 20ms to 200ms\n.fourrier 50 I(V1)
