Version 4
SHEET 1 880 700
WIRE -64 -384 -112 -384
WIRE 0 -384 -64 -384
WIRE -64 -304 -64 -384
WIRE 400 -304 288 -304
WIRE 448 -304 400 -304
WIRE 0 -272 0 -384
WIRE 32 -272 0 -272
WIRE 288 -272 288 -304
WIRE 400 -240 400 -304
WIRE -64 -128 -64 -224
WIRE 16 -128 -64 -128
WIRE 160 -128 160 -176
WIRE 160 -128 16 -128
WIRE 400 -128 400 -160
WIRE 16 -112 16 -128
WIRE 400 112 352 112
WIRE 400 144 400 112
WIRE 400 256 400 224
WIRE 400 256 368 256
WIRE 480 256 400 256
WIRE 400 272 400 256
WIRE 368 304 368 256
WIRE 400 368 400 336
FLAG 16 -112 0
FLAG 400 -128 0
FLAG 448 -304 VOUT
IOPIN 448 -304 Out
FLAG -112 -384 VIN
IOPIN -112 -384 In
FLAG 480 256 VOUT1
IOPIN 480 256 Out
FLAG 352 112 VIN
IOPIN 352 112 In
FLAG 400 368 0
SYMBOL voltage -64 -320 R0
WINDOW 123 0 0 Left 0
WINDOW 39 0 0 Left 0
SYMATTR InstName V1
SYMATTR Value 10
SYMBOL res 384 -256 R0
SYMATTR InstName R2
SYMATTR Value 100
SYMBOL res 384 128 R0
SYMATTR InstName R4
SYMATTR Value 220
SYMBOL PowerProducts\\LT1086-5 160 -272 R0
SYMATTR InstName U1
SYMBOL References\\tl431_a 384 272 R0
SYMATTR InstName U2
TEXT 288 32 Left 0 !.dc V1 0 30 1
