Version 4
SHEET 1 880 680
WIRE 240 16 16 16
WIRE 16 32 16 16
WIRE 16 160 16 112
WIRE 64 160 16 160
WIRE 240 160 240 16
WIRE 16 176 16 160
WIRE -288 224 -352 224
WIRE -224 224 -288 224
WIRE -48 224 -144 224
WIRE -288 256 -288 224
WIRE -288 384 -288 336
WIRE 16 384 16 272
WIRE 16 384 -288 384
WIRE 240 384 240 240
WIRE 240 384 16 384
WIRE 16 400 16 384
FLAG 16 400 0
FLAG -352 224 VIN
IOPIN -352 224 In
FLAG 64 160 VOUT
IOPIN 64 160 Out
SYMBOL res 0 16 R0
SYMATTR InstName R1
SYMATTR Value 10k
SYMBOL voltage 240 144 R0
WINDOW 123 0 0 Left 0
WINDOW 39 0 0 Left 0
SYMATTR InstName V1
SYMATTR Value 10V
SYMBOL voltage -288 240 R0
WINDOW 123 0 0 Left 0
WINDOW 39 0 0 Left 0
WINDOW 3 -135 166 Left 0
SYMATTR Value PULSE(0 5V 0 1n 1n 5u 10u)
SYMATTR InstName V2
SYMBOL npn -48 176 R0
SYMATTR InstName Q1
SYMATTR Value 2N2222
SYMBOL res -128 208 R90
WINDOW 0 0 56 VBottom 0
WINDOW 3 32 56 VTop 0
SYMATTR InstName R2
SYMATTR Value 1k
TEXT -280 432 Left 0 !.tran 20u
