Version 4
SHEET 1 1272 1292
WIRE 736 -192 576 -192
WIRE 256 -176 96 -176
WIRE 736 -144 736 -192
WIRE 256 -128 256 -176
WIRE 624 -112 576 -112
WIRE 144 -96 96 -96
WIRE 416 -64 384 -64
WIRE 512 -64 496 -64
WIRE -64 -48 -160 -48
WIRE 32 -48 16 -48
WIRE 512 -32 512 -64
WIRE 528 -32 512 -32
WIRE 576 32 576 -16
WIRE 736 32 736 -64
WIRE 736 32 576 32
WIRE 96 48 96 0
WIRE 256 48 256 -48
WIRE 256 48 96 48
WIRE 576 48 576 32
WIRE 96 64 96 48
WIRE 736 96 576 96
WIRE -768 128 -784 128
WIRE 96 128 -768 128
WIRE 256 128 96 128
WIRE 736 144 736 96
WIRE 256 176 256 128
WIRE 624 176 576 176
WIRE -544 208 -672 208
WIRE 144 208 96 208
WIRE 416 224 384 224
WIRE 512 224 496 224
WIRE -768 240 -768 128
WIRE -736 240 -768 240
WIRE -624 256 -672 256
WIRE -544 256 -544 208
WIRE -224 256 -288 256
WIRE -160 256 -224 256
WIRE -16 256 -80 256
WIRE 32 256 -16 256
WIRE 512 256 512 224
WIRE 528 256 512 256
WIRE -784 304 -784 128
WIRE -736 304 -784 304
WIRE 576 320 576 272
WIRE 576 320 528 320
WIRE 736 320 736 224
WIRE 736 320 576 320
WIRE -736 336 -752 336
WIRE 528 336 528 320
WIRE 528 336 512 336
WIRE 576 336 576 320
WIRE -224 352 -224 336
WIRE -16 352 -16 336
WIRE -16 352 -224 352
WIRE 96 352 96 304
WIRE 96 352 -16 352
WIRE 256 352 256 256
WIRE 256 352 96 352
WIRE 96 368 96 352
WIRE 640 368 528 368
WIRE 800 368 640 368
WIRE -992 384 -1056 384
WIRE -864 384 -912 384
WIRE -816 384 -864 384
WIRE 240 400 80 400
WIRE 640 416 640 368
WIRE -752 464 -752 432
WIRE 576 464 528 464
WIRE 128 480 80 480
WIRE 240 480 240 400
WIRE 80 496 80 480
WIRE 80 496 64 496
WIRE 800 496 800 368
WIRE 80 512 80 496
WIRE 704 512 640 512
WIRE 720 512 704 512
WIRE 704 544 704 512
WIRE -128 560 -144 560
WIRE -32 560 -48 560
WIRE 0 560 0 496
WIRE 0 560 -32 560
WIRE 16 560 0 560
WIRE 32 560 16 560
WIRE 432 560 416 560
WIRE 528 560 528 464
WIRE 528 560 512 560
WIRE 576 560 528 560
WIRE 592 560 576 560
WIRE -32 576 -32 560
WIRE 80 656 80 608
WIRE 80 656 -32 656
WIRE 240 656 240 560
WIRE 240 656 80 656
WIRE 80 672 80 656
WIRE 640 672 640 608
WIRE 640 672 528 672
WIRE 704 672 704 624
WIRE 704 672 640 672
WIRE 800 672 800 576
WIRE 800 672 704 672
WIRE 640 688 640 672
WIRE 64 736 -48 736
WIRE 288 736 64 736
WIRE 640 736 528 736
WIRE 800 736 640 736
WIRE 64 768 64 736
WIRE 640 768 640 736
WIRE 592 784 560 784
WIRE -176 816 -192 816
WIRE -48 816 -96 816
WIRE 0 816 -48 816
WIRE 288 864 288 736
WIRE 800 864 800 736
WIRE 64 880 64 864
WIRE 144 880 64 880
WIRE 176 880 144 880
WIRE 640 880 640 864
WIRE 640 880 624 880
WIRE 704 880 640 880
WIRE 720 880 704 880
WIRE 64 896 64 880
WIRE 464 896 432 896
WIRE 560 896 560 784
WIRE 560 896 544 896
WIRE 640 896 640 880
WIRE 144 912 144 880
WIRE 704 912 704 880
WIRE -192 944 -192 816
WIRE -192 944 -208 944
WIRE -48 944 -112 944
WIRE 0 944 -48 944
WIRE 16 944 0 944
WIRE -48 960 -48 944
WIRE 560 976 560 896
WIRE 592 976 560 976
WIRE 64 1040 64 992
WIRE 64 1040 -48 1040
WIRE 144 1040 144 992
WIRE 144 1040 64 1040
WIRE 288 1040 288 944
WIRE 288 1040 144 1040
WIRE 640 1040 640 992
WIRE 640 1040 528 1040
WIRE 704 1040 704 992
WIRE 704 1040 640 1040
WIRE 800 1040 800 944
WIRE 800 1040 704 1040
WIRE 64 1056 64 1040
WIRE 640 1056 640 1040
FLAG 96 368 0
FLAG 144 208 out1
IOPIN 144 208 Out
FLAG -288 256 in
IOPIN -288 256 In
FLAG 96 64 0
FLAG 144 -96 out
IOPIN 144 -96 Out
FLAG -160 -48 in
IOPIN -160 -48 In
FLAG 80 672 0
FLAG 128 480 out2
IOPIN 128 480 Out
FLAG -144 560 in
IOPIN -144 560 In
FLAG 576 48 0
FLAG 624 -112 outM
IOPIN 624 -112 Out
FLAG 384 -64 in
IOPIN 384 -64 In
FLAG 576 336 0
FLAG 624 176 outM1
IOPIN 624 176 Out
FLAG 384 224 in
IOPIN 384 224 In
FLAG 64 1056 0
FLAG 176 880 out3
IOPIN 176 880 Out
FLAG -208 944 in
IOPIN -208 944 In
FLAG 640 1056 0
FLAG 720 880 Mout3
IOPIN 720 880 Out
FLAG 432 896 in
IOPIN 432 896 In
FLAG 640 688 0
FLAG 720 512 out4
IOPIN 720 512 Out
FLAG 416 560 in
IOPIN 416 560 In
FLAG -752 464 0
FLAG -864 464 0
FLAG -1056 384 in
IOPIN -1056 384 In
FLAG -624 336 0
FLAG -544 336 0
FLAG -544 208 VOUT1
FLAG -624 256 VOUT2
FLAG -752 336 VCE
SYMBOL npn 32 208 R0
SYMATTR InstName Q1
SYMATTR Value 2N2222
SYMBOL res -64 240 R90
WINDOW 0 0 56 VBottom 2
WINDOW 3 32 56 VTop 2
SYMATTR InstName R1
SYMATTR Value 1k
SYMBOL res 80 112 R0
SYMATTR InstName R2
SYMATTR Value 10k
SYMBOL voltage 256 160 R0
WINDOW 123 0 0 Left 2
WINDOW 39 0 0 Left 2
SYMATTR InstName V1
SYMATTR Value 12
SYMBOL voltage -224 240 R0
WINDOW 123 0 0 Left 2
WINDOW 39 -47 100 Left 2
WINDOW 0 26 60 Left 2
WINDOW 3 -194 131 Left 2
SYMATTR InstName V2
SYMATTR Value PULSE(0 10 0 1n 1n 1u 2u)
SYMBOL res 0 352 R180
WINDOW 0 36 76 Left 2
WINDOW 3 36 40 Left 2
SYMATTR InstName R3
SYMATTR Value 1k
SYMBOL npn 32 -96 R0
SYMATTR InstName Q2
SYMATTR Value 2N2222
SYMBOL res 32 -64 R90
WINDOW 0 0 56 VBottom 2
WINDOW 3 32 56 VTop 2
SYMATTR InstName R4
SYMATTR Value 1k
SYMBOL res 80 -192 R0
SYMATTR InstName R5
SYMATTR Value 10k
SYMBOL voltage 256 -144 R0
WINDOW 123 0 0 Left 2
WINDOW 39 0 0 Left 2
SYMATTR InstName V3
SYMATTR Value 5
SYMBOL npn 16 512 R0
SYMATTR InstName Q3
SYMATTR Value 2N2222
SYMBOL res -32 544 R90
WINDOW 0 0 56 VBottom 2
WINDOW 3 32 56 VTop 2
SYMATTR InstName R6
SYMATTR Value 1k
SYMBOL res 64 384 R0
SYMATTR InstName R7
SYMATTR Value 1k
SYMBOL voltage 240 464 R0
WINDOW 123 0 0 Left 2
WINDOW 39 0 0 Left 2
SYMATTR InstName V4
SYMATTR Value 5
SYMBOL res -16 672 R180
WINDOW 0 36 76 Left 2
WINDOW 3 36 40 Left 2
SYMATTR InstName R8
SYMATTR Value 1k
SYMBOL schottky 0 512 R270
WINDOW 0 32 32 VTop 2
WINDOW 3 0 32 VBottom 2
SYMATTR InstName D1
SYMATTR Value BAT54
SYMATTR Description Diode
SYMATTR Type diode
SYMBOL res 512 -80 R90
WINDOW 0 0 56 VBottom 2
WINDOW 3 32 56 VTop 2
SYMATTR InstName R9
SYMATTR Value 50
SYMBOL res 560 -208 R0
SYMATTR InstName R10
SYMATTR Value 1
SYMBOL voltage 736 -160 R0
WINDOW 123 0 0 Left 2
WINDOW 39 0 0 Left 2
SYMATTR InstName V5
SYMATTR Value 5
SYMBOL nmos 528 -112 R0
SYMATTR InstName M1
SYMATTR Value IRF1312S
SYMBOL res 512 208 R90
WINDOW 0 0 56 VBottom 2
WINDOW 3 32 56 VTop 2
SYMATTR InstName R11
SYMATTR Value 100
SYMBOL voltage 736 128 R0
WINDOW 123 0 0 Left 2
WINDOW 39 0 0 Left 2
SYMATTR InstName V6
SYMATTR Value 5
SYMBOL nmos 528 176 R0
SYMATTR InstName M2
SYMATTR Value BSS123
SYMBOL res 560 80 R0
SYMATTR InstName R12
SYMATTR Value 1k
SYMBOL npn 0 896 R0
SYMATTR InstName Q4
SYMATTR Value 2N2222
SYMBOL res -96 928 R90
WINDOW 0 0 56 VBottom 2
WINDOW 3 32 56 VTop 2
SYMATTR InstName R13
SYMATTR Value 1k
SYMBOL voltage 288 848 R0
WINDOW 0 25 19 Left 2
WINDOW 3 36 56 Left 2
WINDOW 123 0 0 Left 2
WINDOW 39 0 0 Left 2
SYMATTR InstName V7
SYMATTR Value 5
SYMBOL res -32 1056 R180
WINDOW 0 36 76 Left 2
WINDOW 3 36 40 Left 2
SYMATTR InstName R15
SYMATTR Value 1k
SYMBOL pnp 0 864 M180
SYMATTR InstName Q5
SYMATTR Value 2N2907
SYMBOL res -32 832 R180
WINDOW 0 36 76 Left 2
WINDOW 3 36 40 Left 2
SYMATTR InstName R14
SYMATTR Value 1k
SYMBOL res 128 896 R0
SYMATTR InstName R16
SYMATTR Value 1k
SYMBOL res -80 800 R90
WINDOW 0 0 56 VBottom 2
WINDOW 3 32 56 VTop 2
SYMATTR InstName R17
SYMATTR Value 1k
SYMBOL voltage 800 848 R0
WINDOW 0 21 33 Left 2
WINDOW 3 23 78 Left 2
WINDOW 123 0 0 Left 2
WINDOW 39 0 0 Left 2
SYMATTR InstName V8
SYMATTR Value 5
SYMBOL res 688 896 R0
SYMATTR InstName R21
SYMATTR Value 1k
SYMBOL pmos 592 864 M180
SYMATTR InstName M3
SYMATTR Value BSS84
SYMBOL res 560 880 R90
WINDOW 0 0 56 VBottom 2
WINDOW 3 32 56 VTop 2
SYMATTR InstName R18
SYMATTR Value 100
SYMBOL res 528 544 R90
WINDOW 0 0 56 VBottom 2
WINDOW 3 32 56 VTop 2
SYMATTR InstName R19
SYMATTR Value 1k
SYMBOL voltage 800 480 R0
WINDOW 0 25 19 Left 2
WINDOW 3 36 56 Left 2
WINDOW 123 0 0 Left 2
WINDOW 39 0 0 Left 2
SYMATTR InstName V9
SYMATTR Value 5
SYMBOL res 688 528 R0
SYMATTR InstName R23
SYMATTR Value 1k
SYMBOL pnp 576 608 M180
SYMATTR InstName Q6
SYMATTR Value 2N2907
SYMBOL npn 576 416 R0
SYMATTR InstName Q8
SYMATTR Value 2N2222
SYMBOL npn -816 336 R0
SYMATTR InstName Q7
SYMBOL res -880 368 R0
SYMATTR InstName R20
SYMATTR Value 1k
SYMBOL res -896 368 R90
WINDOW 0 0 56 VBottom 2
WINDOW 3 32 56 VTop 2
SYMATTR InstName R22
SYMATTR Value 1k
SYMBOL res -640 240 R0
SYMATTR InstName R24
SYMATTR Value 10
SYMBOL res -560 240 R0
SYMATTR InstName R25
SYMATTR Value 10
SYMBOL rly_spdt -704 256 R0
SYMATTR InstName U3
SYMBOL addon\\Transistors\\NMOS 592 896 R0
SYMATTR InstName U2
TEXT -424 400 Left 2 !.tran 10u
