Version 4
SHEET 1 880 680
WIRE 96 112 0 112
WIRE 208 112 96 112
WIRE 320 112 208 112
WIRE 608 112 320 112
WIRE 96 128 96 112
WIRE 208 176 208 112
WIRE 0 208 0 112
WIRE 96 224 96 208
WIRE 144 224 96 224
WIRE 608 224 608 112
WIRE 96 240 96 224
WIRE 320 240 320 112
WIRE -144 288 -192 288
WIRE -128 288 -144 288
WIRE 0 288 -64 288
WIRE 32 288 0 288
WIRE 208 288 208 272
WIRE 256 288 208 288
WIRE 0 304 0 288
WIRE 208 304 208 288
WIRE 480 304 464 304
WIRE 336 336 320 336
WIRE 384 336 336 336
WIRE 464 336 464 304
WIRE 464 336 448 336
WIRE 96 352 96 336
WIRE 336 352 336 336
WIRE 464 384 464 336
WIRE 496 384 464 384
WIRE 496 416 464 416
WIRE 608 416 608 304
WIRE -144 432 -144 368
WIRE 0 432 0 384
WIRE 0 432 -144 432
WIRE 96 432 0 432
WIRE 208 432 208 384
WIRE 208 432 96 432
WIRE 336 432 208 432
WIRE 96 448 96 432
FLAG 96 448 0
FLAG 608 416 0
FLAG -192 288 VIN
IOPIN -192 288 In
FLAG 464 416 0
FLAG 480 304 out
IOPIN 480 304 Out
SYMBOL npn 32 240 R0
SYMATTR InstName Q1
SYMATTR Value 2N2222
SYMBOL res 80 112 R0
SYMATTR InstName R1
SYMATTR Value 10k
SYMBOL voltage 608 208 R0
WINDOW 123 0 0 Left 2
WINDOW 39 0 0 Left 2
SYMATTR InstName V1
SYMATTR Value 10V
SYMBOL voltage -144 272 R0
WINDOW 3 -206 87 Left 2
WINDOW 123 0 0 Left 2
WINDOW 39 0 0 Left 2
WINDOW 0 -24 55 Left 2
SYMATTR Value SINE(0 0.4 1K)
SYMATTR InstName V2
SYMBOL res 16 304 R180
WINDOW 0 36 76 Left 2
WINDOW 3 36 40 Left 2
SYMATTR InstName R2
SYMATTR Value 9k
SYMBOL res 80 336 R0
SYMATTR InstName R3
SYMATTR Value 820
SYMBOL res 16 400 R180
WINDOW 0 36 76 Left 2
WINDOW 3 36 40 Left 2
SYMATTR InstName R4
SYMATTR Value 1k
SYMBOL cap -64 272 R90
WINDOW 0 0 32 VBottom 2
WINDOW 3 32 32 VTop 2
SYMATTR InstName C1
SYMATTR Value 1µ
SYMBOL npn 144 176 R0
SYMATTR InstName Q2
SYMATTR Value 2N2222
SYMBOL res 192 288 R0
SYMATTR InstName R6
SYMATTR Value 200
SYMBOL npn 256 240 R0
SYMATTR InstName Q3
SYMATTR Value 2N3055
SYMBOL cap 448 320 R90
WINDOW 0 0 32 VBottom 2
WINDOW 3 32 32 VTop 2
SYMATTR InstName C2
SYMATTR Value 1000µ
SYMBOL res 320 336 R0
SYMATTR InstName R5
SYMATTR Value 7.5
SYMBOL addon\\Speakers\\speakers 528 400 R0
SYMATTR InstName U2
TEXT -152 456 Left 2 !.tran 10ms
TEXT -144 488 Left 2 !;.step NPN 2N2222(BF) 100 250 25\n;.step temp -55 125 5
TEXT -448 0 Left 2 ;dans cet exemple on utilise la directive .step pour modifier le gain BF du modele
