Version 4
SHEET 1 880 992
WIRE 224 16 224 -48
WIRE -368 48 -384 48
WIRE 64 48 -112 48
WIRE 128 48 64 48
WIRE -384 80 -384 48
WIRE -368 80 -384 80
WIRE 64 80 -96 80
WIRE 128 80 64 80
WIRE -384 112 -384 80
WIRE -368 112 -384 112
WIRE 64 112 -80 112
WIRE 128 112 64 112
WIRE -384 144 -384 112
WIRE -368 144 -384 144
WIRE 64 144 -64 144
WIRE 128 144 64 144
WIRE 384 160 304 160
WIRE 432 160 384 160
WIRE -432 176 -576 176
WIRE -368 176 -432 176
WIRE 64 176 -32 176
WIRE 128 176 64 176
WIRE 64 208 -16 208
WIRE 128 208 64 208
WIRE 64 240 0 240
WIRE 128 240 64 240
WIRE -576 272 -576 256
WIRE -112 272 -112 48
WIRE -112 272 -144 272
WIRE 64 272 16 272
WIRE 128 272 64 272
WIRE -96 304 -96 80
WIRE -96 304 -144 304
WIRE 224 320 224 304
WIRE -80 336 -80 112
WIRE -80 336 -144 336
WIRE -64 368 -64 144
WIRE -64 368 -144 368
WIRE 304 400 304 384
WIRE -144 464 -144 416
WIRE -144 464 -432 464
WIRE 304 496 304 480
WIRE -400 544 -416 544
WIRE -384 544 -400 544
WIRE -416 576 -416 544
WIRE -384 576 -416 576
WIRE -432 608 -432 464
WIRE -384 608 -432 608
WIRE -432 640 -432 608
WIRE -384 640 -432 640
WIRE 144 656 128 656
WIRE 240 656 224 656
WIRE -384 672 -480 672
WIRE 144 688 112 688
WIRE 240 688 224 688
WIRE 144 720 112 720
WIRE 240 720 224 720
WIRE 144 752 112 752
WIRE 240 752 224 752
WIRE -32 768 -32 176
WIRE -32 768 -160 768
WIRE 144 784 112 784
WIRE 240 784 224 784
WIRE -16 800 -16 208
WIRE -16 800 -160 800
WIRE 144 816 112 816
WIRE 240 816 224 816
WIRE 0 832 0 240
WIRE 0 832 -160 832
WIRE 144 848 112 848
WIRE 240 848 224 848
WIRE 16 864 16 272
WIRE 16 864 -160 864
WIRE 144 880 112 880
WIRE 240 880 224 880
FLAG 304 384 VCC
FLAG 304 496 0
FLAG -576 272 0
FLAG -432 176 clk
FLAG -384 112 VCC
FLAG -400 544 VCC
FLAG -480 672 clk
FLAG 224 -48 vcc
FLAG 224 320 0
FLAG 384 160 out
FLAG 240 880 D0_
FLAG 240 848 D1_
FLAG 240 816 D2_
FLAG 240 784 D3_
FLAG 240 752 D4_
FLAG 240 720 D5_
FLAG 240 688 D6_
FLAG 240 656 D7_
FLAG 112 880 D0
FLAG 112 848 D1
FLAG 112 816 D2
FLAG 112 784 D3
FLAG 112 752 D4
FLAG 112 720 D5
FLAG 112 688 D6
FLAG 128 656 D7
FLAG 64 48 D0_
FLAG 64 80 D1_
FLAG 64 112 D2_
FLAG 64 144 D3_
FLAG 64 176 D4_
FLAG 64 208 D5_
FLAG 64 240 D6_
FLAG 64 272 D7_
SYMBOL 74hct163 -256 -32 R0
SYMATTR InstName U2
SYMBOL voltage 304 384 R0
WINDOW 123 0 0 Left 2
WINDOW 39 0 0 Left 2
SYMATTR InstName V1
SYMATTR Value 5V
SYMBOL voltage -576 160 R0
WINDOW 123 0 0 Left 2
WINDOW 39 0 0 Left 2
WINDOW 3 -198 -25 Left 2
SYMATTR Value PULSE(0 5 0 1ns 1ns 1u 2u)
SYMATTR InstName V2
SYMBOL DAC8 256 192 R0
SYMATTR InstName U1
SYMBOL addon\\Digital\\74XX\\HC&U\\74hc163 -272 464 R0
SYMATTR InstName U3
SYMBOL addon\\Digital\\74XX\\Digital\ 74HCTxxx\\dview10 208 736 R180
SYMATTR InstName U4
TEXT -616 344 Left 2 !.tran 520u
