Version 4
SHEET 1 908 692
WIRE 448 224 384 224
WIRE 624 224 448 224
WIRE 384 272 384 224
WIRE 224 304 192 304
WIRE 320 304 224 304
WIRE 336 304 320 304
WIRE 480 320 432 320
WIRE 544 320 480 320
WIRE 320 336 320 304
WIRE 336 336 320 336
WIRE 624 336 624 224
WIRE 384 416 384 368
WIRE 480 416 480 400
WIRE 480 416 384 416
WIRE 480 432 480 416
WIRE 192 448 192 384
FLAG 192 448 0
FLAG 224 304 VIN
FLAG 624 416 0
FLAG 480 432 0
FLAG 544 320 out2
IOPIN 544 320 Out
FLAG 448 224 vdd
SYMBOL voltage 192 288 R0
WINDOW 123 0 0 Left 0
WINDOW 39 -47 100 Left 0
WINDOW 0 35 60 Left 0
WINDOW 3 -66 143 Left 0
SYMATTR SpiceLine Rser=100
SYMATTR InstName V1
SYMATTR Value PULSE(0 5 0 0.1u 0.1u 1u 2u)
SYMBOL voltage 624 320 R0
WINDOW 123 0 0 Left 0
WINDOW 39 0 0 Left 0
SYMATTR InstName V2
SYMATTR Value 5V
SYMBOL res 464 304 R0
SYMATTR InstName R1
SYMATTR Value {R}
SYMBOL 7400 384 304 R0
SYMATTR InstName X1
TEXT 192 168 Left 0 !.step param R list 300 500 1k 2k 5k
TEXT 200 488 Left 0 !.tran 10u
