Version 4
SHEET 1 880 680
WIRE 320 80 320 48
WIRE -336 176 -384 176
WIRE -160 176 -176 176
WIRE 32 176 -160 176
WIRE -384 208 -384 176
WIRE 432 240 400 240
WIRE -32 288 -48 288
WIRE 32 288 -32 288
WIRE -384 304 -384 272
WIRE -176 320 -176 176
WIRE -48 320 -48 288
WIRE -336 336 -384 336
WIRE -384 368 -384 336
WIRE 176 432 176 416
WIRE 240 432 240 416
WIRE 240 432 176 432
WIRE 320 448 320 416
WIRE -384 464 -384 432
WIRE -176 464 -176 400
WIRE -48 464 -48 400
WIRE 240 464 240 432
FLAG -48 464 0
FLAG -176 464 0
FLAG 240 464 0
FLAG -160 176 a
FLAG -32 288 b
FLAG 432 240 out
IOPIN 432 240 Out
FLAG 320 48 vcc
FLAG -384 464 0
FLAG -336 336 vee
FLAG 320 448 vee
FLAG -384 304 0
FLAG -336 176 vcc
SYMBOL voltage -48 304 R0
SYMATTR InstName V1
SYMATTR Value 50
SYMBOL voltage -176 304 R0
WINDOW 3 -67 198 Left 2
WINDOW 123 0 0 Left 2
WINDOW 39 0 0 Left 2
SYMATTR Value PULSE(49 50 1u 10n 10n 50u 100u)
SYMATTR InstName V2
SYMBOL Misc\\cell -384 368 R0
SYMATTR InstName V3
SYMATTR Value -15
SYMBOL Misc\\cell -384 208 R0
SYMATTR InstName V4
SYMATTR Value 15
SYMBOL addon\\Opamps\\Instrumentation\\INA117 256 240 R0
SYMATTR InstName U1
TEXT -384 0 Left 2 !.op
TEXT 48 0 Left 2 ;V(out) = V(b) - V(a)
TEXT -384 40 Left 2 !.tran 0 200u 0 20n
TEXT -384 72 Left 2 !.options plotwinsize=0
