Version 4
SHEET 1 880 680
WIRE 96 32 16 32
WIRE 192 32 96 32
WIRE 16 48 16 32
WIRE 16 160 16 128
WIRE 48 160 16 160
WIRE 192 160 192 32
WIRE 16 192 16 160
WIRE -192 272 -208 272
WIRE -144 272 -192 272
WIRE -32 272 -64 272
WIRE -192 288 -192 272
WIRE 16 368 16 288
WIRE 16 368 -192 368
WIRE 192 368 192 240
WIRE 192 368 16 368
WIRE 16 384 16 368
FLAG 16 384 0
FLAG -208 272 VIN
IOPIN -208 272 In
FLAG 48 160 VOUT
IOPIN 48 160 Out
FLAG 96 32 Vdd
SYMBOL BS170 -32 192 R0
SYMATTR InstName U1
SYMBOL res 0 32 R0
SYMATTR InstName R1
SYMATTR Value 1k
SYMBOL voltage 192 144 R0
WINDOW 123 0 0 Left 0
WINDOW 39 0 0 Left 0
SYMATTR InstName V1
SYMATTR Value 10V
SYMBOL voltage -192 272 R0
WINDOW 123 0 0 Left 0
WINDOW 39 0 0 Left 0
WINDOW 0 34 54 Left 0
WINDOW 3 -199 117 Left 0
SYMATTR InstName V2
SYMATTR Value PULSE(0 5V 0 1n 1n 5u 10u)
SYMBOL res -48 256 R90
WINDOW 0 0 56 VBottom 0
WINDOW 3 32 56 VTop 0
SYMATTR InstName R2
SYMATTR Value 100
TEXT 72 408 Left 0 !.tran 20u
