Version 4
SHEET 1 880 680
WIRE 16 32 -112 32
WIRE 96 32 16 32
WIRE 352 32 96 32
WIRE 16 80 16 32
WIRE -32 96 -64 96
WIRE 352 160 352 32
WIRE -240 192 -272 192
WIRE -176 192 -240 192
WIRE -64 192 -64 96
WIRE -64 192 -96 192
WIRE 16 192 16 176
WIRE 128 192 16 192
WIRE 160 192 128 192
WIRE 16 224 16 192
WIRE -240 256 -240 192
WIRE 128 256 128 192
WIRE -64 304 -64 192
WIRE -32 304 -64 304
WIRE -240 352 -240 336
WIRE 16 352 16 320
WIRE 16 352 -240 352
WIRE 128 352 128 336
WIRE 128 352 16 352
WIRE 352 352 352 240
WIRE 352 352 128 352
WIRE 16 368 16 352
FLAG 16 368 0
FLAG -272 192 VIN
IOPIN -272 192 In
FLAG 160 192 VOUT
IOPIN 160 192 Out
FLAG 96 32 Vdd
SYMBOL voltage 352 144 R0
WINDOW 123 0 0 Left 0
WINDOW 39 0 0 Left 0
SYMATTR InstName V1
SYMATTR Value 5V
SYMBOL voltage -240 240 R0
WINDOW 123 0 0 Left 0
WINDOW 39 0 0 Left 0
WINDOW 3 -141 130 Left 0
SYMATTR Value PULSE(0 5V 0 1n 1n 5u 10u)
SYMATTR InstName V2
SYMBOL res -80 176 R90
WINDOW 0 0 56 VBottom 0
WINDOW 3 32 56 VTop 0
SYMATTR InstName R2
SYMATTR Value 100
SYMBOL res 112 240 R0
SYMATTR InstName R5
SYMATTR Value 1k
SYMBOL pmos -32 176 M180
SYMATTR InstName M2
SYMATTR Value BSS84
SYMBOL NMOS\\BS170 -32 224 R0
SYMATTR InstName U1
TEXT -216 416 Left 0 !.tran 20u
