Version 4
SHEET 1 892 692
WIRE 112 48 0 48
WIRE 416 48 272 48
WIRE 464 48 416 48
WIRE 592 48 464 48
WIRE 0 96 0 48
WIRE 416 112 416 48
WIRE 592 112 592 48
WIRE 368 144 352 144
WIRE 544 144 496 144
WIRE 304 160 288 160
WIRE 352 160 352 144
WIRE 352 160 304 160
WIRE 496 160 496 144
WIRE 496 160 464 160
WIRE 688 160 640 160
WIRE 352 176 352 160
WIRE 368 176 352 176
WIRE 496 176 496 160
WIRE 544 176 496 176
WIRE 560 176 544 176
WIRE 0 288 0 176
WIRE 96 288 0 288
WIRE 192 288 176 288
WIRE 416 288 416 208
WIRE 416 288 272 288
WIRE 464 288 416 288
WIRE 592 288 592 208
WIRE 592 288 464 288
WIRE 0 304 0 288
FLAG 208 160 0
FLAG 304 160 VIN
FLAG 688 160 out1
IOPIN 688 160 Out
FLAG 0 304 0
FLAG 464 48 VDD
FLAG 464 288 GROUND
SYMBOL voltage 304 160 R90
WINDOW 123 0 0 Left 0
WINDOW 39 -19 182 VRight 0
WINDOW 0 -17 43 VRight 0
WINDOW 3 44 -44 VRight 0
SYMATTR SpiceLine Rser=10
SYMATTR InstName V1
SYMATTR Value PULSE(0 5 0 0.1u 0.1u 1u 2u)
SYMBOL 74HC00 416 144 R0
SYMATTR InstName X2
SYMBOL voltage 0 80 R0
WINDOW 123 0 0 Left 0
WINDOW 39 0 0 Left 0
WINDOW 3 -1 57 Left 0
SYMATTR InstName V2
SYMATTR Value 5V
SYMBOL 74HC00 592 144 R0
SYMATTR InstName X1
SYMBOL res 208 32 R90
WINDOW 0 0 56 VBottom 0
WINDOW 3 32 56 VTop 0
SYMATTR InstName R1
SYMATTR Value 0.01
SYMBOL ind 288 32 R90
WINDOW 0 5 56 VBottom 0
WINDOW 3 32 56 VTop 0
SYMATTR InstName L1
SYMATTR Value 10n
SYMBOL res 192 272 R90
WINDOW 0 0 56 VBottom 0
WINDOW 3 32 56 VTop 0
SYMATTR InstName R2
SYMATTR Value 0.01
SYMBOL ind 288 272 R90
WINDOW 0 5 56 VBottom 0
WINDOW 3 32 56 VTop 0
SYMATTR InstName L2
SYMATTR Value 10n
TEXT 416 320 Left 0 !.tran 10u
TEXT 176 -16 Left 0 ;piste alim
TEXT 168 352 Left 0 ;piste masse
RECTANGLE Normal 384 96 80 0
RECTANGLE Normal 384 336 80 240
