Version 4
SHEET 1 880 1404
WIRE -928 -96 -1136 -96
WIRE -832 -96 -928 -96
WIRE -784 -96 -832 -96
WIRE -704 -96 -784 -96
WIRE -1552 -80 -1552 -96
WIRE -1136 -80 -1136 -96
WIRE -928 -32 -928 -96
WIRE -1136 16 -1136 0
WIRE -1088 16 -1136 16
WIRE -992 16 -1008 16
WIRE -1136 32 -1136 16
WIRE -832 32 -832 -96
WIRE -2112 48 -2112 -96
WIRE -1328 80 -1328 32
WIRE -1328 80 -1344 80
WIRE -1312 80 -1328 80
WIRE -1200 80 -1232 80
WIRE -1008 80 -1008 16
WIRE -928 80 -928 64
WIRE -896 80 -928 80
WIRE -1456 96 -1488 96
WIRE -928 112 -928 80
WIRE -1552 128 -1552 -80
WIRE -1936 144 -1936 64
WIRE -1136 160 -1136 128
WIRE -832 192 -832 128
WIRE -832 192 -928 192
WIRE -752 192 -832 192
WIRE -736 192 -752 192
WIRE -1552 240 -1552 208
WIRE -1488 240 -1488 96
WIRE -1488 240 -1552 240
WIRE -832 240 -832 192
WIRE -832 240 -944 240
WIRE -1552 256 -1552 240
WIRE -736 256 -736 192
WIRE -1488 272 -1488 240
WIRE -1472 272 -1488 272
WIRE -1200 288 -1248 288
WIRE -1136 288 -1200 288
WIRE -1008 288 -1056 288
WIRE -2112 304 -2112 48
WIRE -2000 304 -2000 240
WIRE -1936 304 -1936 144
WIRE -1760 304 -1856 304
WIRE -1664 304 -1760 304
WIRE -1616 304 -1664 304
WIRE -1360 304 -1440 304
WIRE -832 304 -832 240
WIRE -1664 320 -1664 304
WIRE -1200 320 -1200 288
WIRE -1440 352 -1440 304
WIRE -912 352 -944 336
WIRE -896 352 -912 352
WIRE -1440 368 -1440 352
WIRE -912 368 -912 352
WIRE -2112 464 -2112 384
WIRE -2000 464 -2000 384
WIRE -2000 464 -2112 464
WIRE -1936 464 -1936 384
WIRE -1936 464 -2000 464
WIRE -1856 464 -1856 384
WIRE -1856 464 -1936 464
WIRE -1728 464 -1856 464
WIRE -1664 464 -1664 384
WIRE -1664 464 -1728 464
WIRE -1552 464 -1552 352
WIRE -1552 464 -1664 464
WIRE -912 464 -912 448
WIRE -912 464 -1552 464
WIRE -832 464 -832 400
WIRE -832 464 -912 464
WIRE -736 464 -736 336
WIRE -736 464 -832 464
WIRE -1728 480 -1728 464
FLAG -784 -96 VCC2
FLAG -1760 304 in1
FLAG -752 192 out1
FLAG -2000 240 en1
FLAG -1440 352 en1
FLAG -1136 160 0
FLAG -1728 480 0
FLAG -1456 64 en1
FLAG -1008 80 V2
IOPIN -1008 80 Out
FLAG -1200 320 V1
IOPIN -1200 320 Out
FLAG -1328 32 Vx
IOPIN -1328 32 Out
FLAG -2112 48 VCC
FLAG -1552 -80 VCC
FLAG -1936 144 VCC2
SYMBOL npn -896 32 R0
WINDOW 3 32 57 Left 2
SYMATTR InstName Q4
SYMBOL npn -896 304 R0
WINDOW 0 41 39 Left 2
WINDOW 3 27 57 Left 2
SYMATTR InstName Q6
SYMBOL pnp -1616 352 M180
WINDOW 0 46 36 Left 2
WINDOW 3 41 57 Left 2
SYMATTR InstName Q1
SYMBOL diode -1648 384 R180
WINDOW 0 -24 1 Left 2
WINDOW 3 24 0 Left 2
SYMATTR InstName D1
SYMBOL current -1552 128 R0
WINDOW 123 0 0 Left 2
WINDOW 39 0 0 Left 2
WINDOW 0 -63 42 Left 2
WINDOW 3 -65 19 Left 2
SYMATTR InstName I1
SYMATTR Value 1m
SYMBOL res -1216 64 R90
WINDOW 0 0 56 VBottom 2
WINDOW 3 17 48 VTop 2
SYMATTR InstName R12
SYMATTR Value 1k
SYMBOL res -1152 -96 R0
SYMATTR InstName R14
SYMATTR Value 1k
SYMBOL npn -1200 32 R0
WINDOW 0 39 32 Left 2
WINDOW 3 27 58 Left 2
SYMATTR InstName Q2
SYMBOL voltage -1856 288 R0
WINDOW 123 0 0 Left 2
WINDOW 39 0 0 Left 2
WINDOW 0 35 60 Left 2
WINDOW 3 -209 205 Left 2
SYMATTR InstName V2
SYMATTR Value PULSE(0 5 0 1n 1n 10u 20u)
SYMBOL voltage -2000 288 R0
WINDOW 123 0 0 Left 2
WINDOW 39 0 0 Left 2
SYMATTR InstName V3
SYMATTR Value 5
SYMBOL voltage -2112 288 R0
WINDOW 123 0 0 Left 2
WINDOW 39 0 0 Left 2
SYMATTR InstName V1
SYMATTR Value 5
SYMBOL res -992 0 R90
WINDOW 0 0 56 VBottom 2
WINDOW 3 32 56 VTop 2
SYMATTR InstName R1
SYMATTR Value 200
SYMBOL res -1040 272 R90
WINDOW 0 0 56 VBottom 2
WINDOW 3 28 78 VTop 2
SYMATTR InstName R2
SYMATTR Value 1k
SYMBOL res -928 352 R0
SYMATTR InstName R3
SYMATTR Value 100
SYMBOL res -944 96 R0
SYMATTR InstName R4
SYMATTR Value 200
SYMBOL npn -992 -32 R0
WINDOW 3 32 57 Left 2
SYMATTR InstName Q3
SYMBOL npn -1008 240 R0
WINDOW 0 41 39 Left 2
WINDOW 3 27 57 Left 2
SYMATTR InstName Q5
SYMBOL voltage -1936 288 R0
WINDOW 123 0 0 Left 2
WINDOW 39 0 0 Left 2
SYMATTR InstName V4
SYMATTR Value 12
SYMBOL addon\\Digital\\74HC\\74hc00.i -1408 16 R0
SYMATTR InstName U1
SYMBOL addon\\Digital\\74HC\\74hc08.i -1312 224 R0
SYMATTR InstName U2
SYMBOL addon\\Digital\\74HC\\74hc04.i -1424 224 R0
SYMATTR InstName U3
SYMBOL res -752 240 R0
SYMATTR InstName R5
SYMATTR Value 100
TEXT -1592 496 Left 2 !.tran 800u
TEXT -2032 -144 Left 2 !.model NPN NPN(IS=5E-14 BF=100)\n.model PNP PNP(IS=5E-14 BF=100)
