Version 4
SHEET 1 1004 680
WIRE 128 -64 80 -64
WIRE 384 -64 128 -64
WIRE 384 -48 384 -64
WIRE 128 -16 128 -64
WIRE 496 48 464 48
WIRE 496 80 496 48
WIRE 128 112 128 64
WIRE 384 112 384 80
WIRE 384 112 128 112
WIRE 128 144 128 112
FLAG 128 144 0
FLAG 80 -64 in
FLAG 496 80 out1
SYMBOL voltage 128 -32 R0
WINDOW 123 26 118 Left 0
WINDOW 39 0 0 Left 0
WINDOW 3 -126 115 Left 0
WINDOW 0 32 59 Left 0
SYMATTR Value PULSE(0 12 0 1n 1n 150m 300m )
SYMATTR InstName V1
SYMBOL moteurs\\mcc 384 16 R0
SYMATTR SpiceModel mcc_12V_2.5A
SYMATTR InstName U2
TEXT 208 144 Left 0 !.tran 300m
