Version 4
SHEET 1 880 680
WIRE 176 112 -144 112
WIRE 384 112 352 112
WIRE 592 112 592 96
WIRE 736 112 736 96
WIRE -144 160 -144 112
WIRE 64 160 32 160
WIRE 176 160 144 160
WIRE 416 160 352 160
WIRE 32 208 32 160
WIRE 176 208 32 208
WIRE 432 208 352 208
WIRE 592 208 592 192
WIRE 736 208 736 192
WIRE 432 224 432 208
WIRE 176 256 128 256
WIRE 384 256 352 256
WIRE -144 288 -144 240
WIRE 128 288 128 256
FLAG 128 288 0
FLAG 432 224 0
FLAG 384 112 V+
FLAG 384 256 V-
FLAG 416 160 out
FLAG -144 288 0
FLAG 592 208 0
FLAG 736 208 0
FLAG 592 96 V+
FLAG 736 96 V-
SYMBOL res 48 176 R270
WINDOW 0 32 56 VTop 2
WINDOW 3 0 56 VBottom 2
SYMATTR InstName R1
SYMATTR Value 10k
SYMBOL voltage -144 144 R0
WINDOW 123 0 0 Left 2
WINDOW 39 0 0 Left 2
SYMATTR InstName V1
SYMATTR Value SINE(0 0.1 100)
SYMBOL voltage 592 96 R0
SYMATTR InstName V2
SYMATTR Value 15
SYMBOL voltage 736 96 R0
SYMATTR InstName V3
SYMATTR Value -15
SYMBOL addon\\Opamps\\Instrumentation\\INA126P 224 128 R0
SYMATTR InstName U1
TEXT -144 40 Left 2 !.tran 20m
TEXT 168 -24 Left 2 ;V = 5 + 80kOhm/Rg
