Version 4
SHEET 1 880 680
WIRE -80 -48 -128 -48
WIRE 144 -48 0 -48
WIRE 240 -48 144 -48
WIRE -128 -16 -128 -48
WIRE 144 -16 144 -48
WIRE -128 96 -128 64
WIRE 144 96 144 48
WIRE 240 128 240 -48
WIRE 208 160 176 160
WIRE 176 176 176 160
WIRE 416 192 336 192
WIRE 480 192 416 192
WIRE 592 192 544 192
WIRE 48 224 -16 224
WIRE 208 224 128 224
WIRE 416 240 416 192
WIRE -16 272 -16 224
WIRE 240 288 240 256
WIRE 592 288 592 192
WIRE 416 336 416 304
WIRE -16 400 -16 352
WIRE 416 448 416 416
WIRE 592 448 592 368
FLAG 416 448 0
FLAG 592 448 0
FLAG 240 288 0
FLAG -128 96 0
FLAG 176 176 0
FLAG -16 400 0
FLAG 592 192 out
FLAG -16 224 in
FLAG 144 96 0
SYMBOL cap 480 208 R270
WINDOW 0 32 32 VTop 2
WINDOW 3 0 32 VBottom 2
SYMATTR InstName C1
SYMATTR Value 2220µ
SYMBOL cap 400 240 R0
SYMATTR InstName C2
SYMATTR Value 47n
SYMBOL res 400 320 R0
SYMATTR InstName R2
SYMATTR Value 10
SYMBOL res 576 272 R0
SYMATTR InstName R3
SYMATTR Value 8
SYMBOL voltage -128 -32 R0
SYMATTR InstName V1
SYMATTR Value 9V
SYMBOL res 32 240 R270
WINDOW 0 32 56 VTop 2
WINDOW 3 0 56 VBottom 2
SYMATTR InstName R1
SYMATTR Value 1k
SYMBOL voltage -16 256 R0
WINDOW 123 24 132 Left 2
WINDOW 39 0 0 Left 2
SYMATTR Value2 AC 1
SYMATTR InstName V2
SYMATTR Value SINE(0 .18 1k)
SYMBOL cap 128 -16 R0
SYMATTR InstName C3
SYMATTR Value 47µ
SYMATTR SpiceLine Rser=0.5
SYMBOL res -96 -32 R270
WINDOW 0 32 56 VTop 2
WINDOW 3 0 56 VBottom 2
SYMATTR InstName R4
SYMATTR Value 0.5
SYMBOL addon\\Opamps\\power\\lm386 256 128 R0
SYMATTR InstName U1
TEXT -192 -168 Left 2 ;.tran 10m
TEXT -192 -208 Left 2 ;.ac dec 100 1 1000k
TEXT -176 -88 Left 2 ;Battery
TEXT -192 -240 Left 2 !.op
TEXT -192 -288 Left 2 ;http://forum.allaboutcircuits.com/newsgroups/viewtopic.php?p=76257
TEXT 48 -208 Left 2 !.tran 0 10m 0 1u
TEXT 328 -248 Left 2 ;700mW with 9V and 8 Ohm\n \nP=U^2/R  \n \nUpp=2*1.4*sqrt(P/R)   -> 6.7Vpp
RECTANGLE Normal 32 144 -192 -112 2
