Version 4
SHEET 1 880 1168
WIRE 256 -272 256 -288
WIRE 368 -272 368 -288
WIRE 256 -176 256 -192
WIRE 368 -176 368 -192
WIRE -48 -64 -96 -64
WIRE 80 -64 32 -64
WIRE 96 -64 80 -64
WIRE 144 -64 96 -64
WIRE 272 -64 224 -64
WIRE -96 -32 -96 -64
WIRE 144 64 144 48
WIRE 80 96 80 -64
WIRE 112 96 80 96
WIRE 272 144 272 -64
WIRE 272 144 224 144
WIRE 320 144 272 144
WIRE 368 144 320 144
WIRE 416 144 368 144
WIRE 368 176 368 144
WIRE -144 192 -208 192
WIRE 64 192 -64 192
WIRE 112 192 64 192
WIRE 192 208 192 192
WIRE 144 240 144 224
WIRE -208 256 -208 192
WIRE 368 288 368 256
WIRE -208 368 -208 336
WIRE 160 496 160 480
WIRE -128 528 -192 528
WIRE 80 528 -48 528
WIRE 128 528 80 528
WIRE 288 576 240 576
WIRE 336 576 288 576
WIRE 384 576 336 576
WIRE 432 576 384 576
WIRE 384 608 384 576
WIRE 128 624 96 624
WIRE 208 640 208 624
WIRE 160 672 160 656
WIRE 384 720 384 688
WIRE -32 752 -80 752
WIRE 96 752 96 624
WIRE 96 752 48 752
WIRE 112 752 96 752
WIRE 160 752 112 752
WIRE 288 752 288 576
WIRE 288 752 240 752
WIRE -80 784 -80 752
FLAG 192 208 0
FLAG -208 368 0
FLAG 144 240 V-
FLAG 144 48 V+
FLAG 368 288 0
FLAG -96 -32 0
FLAG 256 -176 0
FLAG 368 -176 0
FLAG 256 -288 V+
FLAG 368 -288 V-
FLAG 416 144 out
FLAG -208 192 in
FLAG 208 640 0
FLAG 160 672 V-
FLAG 160 480 V+
FLAG 384 720 0
FLAG -80 784 0
FLAG 432 576 out2
FLAG -192 528 in
DATAFLAG 320 144 "round($*10k)/10k"
DATAFLAG 64 192 "round($*10k)/10k"
DATAFLAG 96 -64 "round($*10k)/10k"
DATAFLAG 336 576 "round($*10k)/10k"
DATAFLAG 80 528 "round($*10k)/10k"
DATAFLAG 112 752 "round($*10k)/10k"
SYMBOL res -64 -48 R270
WINDOW 0 32 56 VTop 2
WINDOW 3 0 56 VBottom 2
SYMATTR InstName R1
SYMATTR Value 1k
SYMBOL res 128 -48 R270
WINDOW 0 32 56 VTop 2
WINDOW 3 0 56 VBottom 2
SYMATTR InstName R2
SYMATTR Value 20k
SYMBOL res -160 208 R270
WINDOW 0 32 56 VTop 2
WINDOW 3 0 56 VBottom 2
SYMATTR InstName RG
SYMATTR Value 1k
SYMBOL res 352 160 R0
SYMATTR InstName RL
SYMATTR Value 8
SYMBOL voltage 256 -288 R0
SYMATTR InstName V1
SYMATTR Value 28
SYMBOL voltage 368 -288 R0
SYMATTR InstName V2
SYMATTR Value -28
SYMBOL voltage -208 240 R0
WINDOW 39 26 125 Left 2
SYMATTR SpiceLine AC 1
SYMATTR InstName VG
SYMATTR Value PWL(0 0 20u 0 repeat forever (0.1u 1 49.9u 1 50.1u -1 99.9u -1) endrepeat
SYMBOL res -48 768 R270
WINDOW 0 32 56 VTop 2
WINDOW 3 0 56 VBottom 2
SYMATTR InstName R11
SYMATTR Value 1k
SYMBOL res 144 768 R270
WINDOW 0 32 56 VTop 2
WINDOW 3 0 56 VBottom 2
SYMATTR InstName R21
SYMATTR Value 20k
SYMBOL res -144 544 R270
WINDOW 0 32 56 VTop 2
WINDOW 3 0 56 VBottom 2
SYMATTR InstName RG1
SYMATTR Value 1k
SYMBOL res 368 592 R0
SYMATTR InstName RL1
SYMATTR Value 8
SYMBOL addon\\Opamps\\power\\LM3886 160 144 R0
SYMATTR InstName U1
SYMBOL addon\\Opamps\\power\\LM3886 176 576 R0
SYMATTR InstName U2
TEXT -216 -288 Left 2 !.tran 0 250u 0 .1u
TEXT -216 -256 Left 2 !.options plotwinsize=0
TEXT -216 -320 Left 2 !.op
TEXT -216 -216 Left 2 ;.ac dec 100 1 1meg
TEXT -32 368 Left 2 ;PULSE(-1 1 0 1u 1u 49u 100u)
TEXT -216 -184 Left 2 ;.noise V(out) VG dec 100 1 1meg
TEXT -184 72 Left 2 ;Symbol LM3886_1
TEXT -176 624 Left 2 ;Symbol LM3886_2
