Version 4
SHEET 1 880 680
WIRE 256 -112 176 -112
WIRE 272 -112 256 -112
WIRE -368 -96 -432 -96
WIRE -288 -96 -368 -96
WIRE -112 -96 -176 -96
WIRE -32 -96 -112 -96
WIRE 128 -96 64 -96
WIRE -432 -80 -432 -96
WIRE -176 -80 -176 -96
WIRE 128 -32 128 -48
WIRE 176 -32 128 -32
WIRE 128 -16 128 -32
WIRE -240 16 -240 -48
WIRE 256 16 256 -112
WIRE 256 16 -240 16
WIRE -432 32 -432 0
FLAG -432 32 0
FLAG -368 -96 in
FLAG -112 -96 err
FLAG 128 -16 0
FLAG 272 -112 Vout_L
IOPIN 272 -112 Out
SYMBOL voltage -432 -96 R0
WINDOW 123 22 129 Left 2
SYMATTR Value2 AC 1V
SYMATTR SpiceLine Rser=0
SYMATTR InstName V1
SYMATTR Value 1V
SYMBOL addon\\automation_laplace\\soustracteur -208 -96 R0
SYMATTR InstName U1
SYMBOL addon\\automation_laplace\\integrator 16 -96 R0
SYMATTR InstName U2
SYMATTR Value Ki={w0}
SYMBOL e 176 -128 R0
WINDOW 3 32 59 Left 2
SYMATTR Value Laplace={3 /((s/{w01} +1))}
SYMATTR InstName E1
TEXT -600 168 Left 2 !;ac dec 5000 .000001 100000
TEXT -600 -208 Left 2 ;Fourth order Butterworth LPF.
TEXT -600 -176 Left 2 ;G(s)=1/((s/w0)^4+k3(s/w0)^3+k2(s/w0)^2+k1(s/w0)+1)
TEXT -600 144 Left 2 !.tran 0 5m 0
TEXT -600 120 Left 2 !.param w0=2*pi*f0 f0=3k
TEXT -600 96 Left 2 !.param w01=2*pi*f1 f1=1k
