Version 4
SHEET 1 1236 692
WIRE 592 224 512 224
WIRE 608 224 592 224
WIRE 0 240 0 192
WIRE 0 240 -32 240
WIRE 144 240 0 240
WIRE 288 240 256 240
WIRE 464 240 400 240
WIRE -32 256 -32 240
WIRE 464 304 464 288
WIRE 512 304 464 304
WIRE 464 320 464 304
WIRE 192 368 192 288
WIRE 592 368 592 224
WIRE 592 368 192 368
WIRE -32 384 -32 336
FLAG -32 384 0
FLAG 0 192 VIN
IOPIN 0 192 In
FLAG 464 320 0
FLAG 608 224 Vout_L
IOPIN 608 224 Out
SYMBOL voltage -32 240 R0
WINDOW 3 -192 129 Left 2
WINDOW 123 -192 157 Left 2
WINDOW 39 0 0 Left 2
SYMATTR Value PULSE(0 1 0 1n 1n 2m 4m)
SYMATTR Value2 AC 10
SYMATTR InstName V1
SYMBOL e 512 208 R0
WINDOW 3 32 59 Left 2
SYMATTR Value Laplace={1/((s/{w01} +1))}
SYMATTR InstName E1
SYMBOL soustracteur 224 240 R0
SYMATTR InstName U1
SYMBOL addon\\automation_laplace\\GAIN 368 240 R0
SYMATTR InstName U2
TEXT 256 592 Left 2 !;ac dec 1000 10 100k
TEXT 264 616 Left 2 !.tran 8ms uic
TEXT 560 480 Left 2 !.params w01=1/(1k*300n)
