Version 4
SHEET 1 3592 952
WIRE 224 -176 128 -176
WIRE 576 -176 480 -176
WIRE 128 0 128 -176
WIRE 368 0 128 0
WIRE 368 80 368 0
WIRE 368 80 224 80
WIRE 432 80 368 80
WIRE 224 112 224 80
WIRE 368 128 368 80
WIRE 224 240 224 192
WIRE 368 240 368 208
FLAG 224 240 0
FLAG 432 80 VERROR
FLAG 368 240 0
FLAG 576 -176 out
SYMBOL voltage 224 96 R0
WINDOW 123 0 0 Left 2
WINDOW 3 -106 219 Left 2
WINDOW 0 -61 4 Left 2
SYMATTR Value PULSE(0m .5 0 1n 1n 100m 200m)
SYMATTR InstName VSET
SYMATTR SpiceLine Rser=10m
SYMBOL res 352 112 R0
SYMATTR InstName RERROR
SYMATTR Value 1MEG
SYMBOL addon\\automation_laplace\\PID_ideal 336 -208 R0
SYMATTR InstName U1
SYMATTR Value Kp=10 Ki=100 Kd=0.1
TEXT 104 368 Left 2 !.tran 0 400m 0 1m
