Version 4
SHEET 1 1432 788
WIRE 576 -432 576 -464
WIRE 752 -432 576 -432
WIRE 576 -336 576 -352
WIRE 624 -336 576 -336
WIRE 656 -336 624 -336
WIRE 752 -336 752 -352
WIRE 800 -336 752 -336
WIRE 816 -336 800 -336
WIRE 576 -320 576 -336
WIRE 752 -320 752 -336
WIRE 752 -224 752 -240
WIRE 576 -192 576 -240
FLAG 576 -192 0
FLAG 576 -464 2V5
FLAG 752 -224 0
FLAG 800 -336 V1
FLAG 624 -336 V2
SYMBOL PT100 592 -336 R180
WINDOW 3 44 -5 Left 2
WINDOW 38 44 -26 Left 2
SYMATTR InstName U1
SYMATTR Value ""
SYMBOL res 560 -336 R0
SYMATTR InstName R2
SYMATTR Value 10k
SYMBOL res 736 -336 R0
SYMATTR InstName R3
SYMATTR Value 10k
SYMBOL res 736 -448 R0
SYMATTR InstName R4
SYMATTR Value 100
TEXT 464 -88 Left 2 !.step param sensT list 0 5 10 15 20 25 30 35 40 45 50
TEXT 464 -64 Left 2 !.op
TEXT 464 -120 Left 2 !.lib PT100.sub
TEXT -272 -88 Left 2 !.include LM358.MOD
