Version 4
SHEET 1 880 788
WIRE 160 -160 112 -160
WIRE 288 -160 224 -160
WIRE 112 -32 112 -160
WIRE 160 -32 112 -32
WIRE 288 -32 288 -160
WIRE 288 -32 240 -32
WIRE 192 80 192 48
WIRE -224 96 -240 96
WIRE -192 96 -224 96
WIRE 16 96 -64 96
WIRE 112 96 112 -32
WIRE 112 96 96 96
WIRE 160 96 112 96
WIRE 288 112 288 -32
WIRE 288 112 224 112
WIRE 160 128 112 128
WIRE 112 144 112 128
WIRE 288 144 288 112
WIRE 368 144 288 144
WIRE -240 160 -240 96
WIRE 0 240 -16 240
WIRE 16 240 0 240
WIRE 112 240 112 224
WIRE 112 240 96 240
WIRE 208 240 112 240
WIRE 112 256 112 240
WIRE 208 288 208 240
WIRE 208 288 144 288
WIRE -64 320 -64 96
WIRE 112 320 -64 320
WIRE -64 336 -64 320
FLAG -64 336 0
FLAG 368 144 out
IOPIN 368 144 Out
FLAG -240 240 0
FLAG -224 96 12V
FLAG 192 48 12V
FLAG 192 144 0
FLAG 0 240 12V
SYMBOL PT100 256 -48 R90
WINDOW 0 -19 56 VBottom 2
WINDOW 3 48 56 VTop 2
WINDOW 38 -37 105 VTop 2
SYMATTR InstName U1
SYMATTR Value ""
SYMBOL voltage -240 144 R0
WINDOW 123 0 0 Left 2
WINDOW 39 0 0 Left 2
SYMATTR InstName V2
SYMATTR Value 12
SYMBOL res 112 80 R90
WINDOW 0 0 56 VBottom 2
WINDOW 3 32 56 VTop 2
SYMATTR InstName R1
SYMATTR Value 2k5
SYMBOL cap 224 -176 R90
WINDOW 0 0 32 VBottom 2
WINDOW 3 32 32 VTop 2
SYMATTR InstName C1
SYMATTR Value 10n
SYMBOL res 96 128 R0
SYMATTR InstName R2
SYMATTR Value 2k5
SYMBOL Opamps\\opamp2 192 48 R0
SYMATTR InstName U2
SYMATTR Value LM358/NS
SYMBOL References\\LT1009 112 288 R0
SYMATTR InstName U3
SYMBOL res 112 224 R90
WINDOW 0 0 56 VBottom 2
WINDOW 3 32 56 VTop 2
SYMATTR InstName R3
SYMATTR Value 10k
TEXT -120 432 Left 2 !.step param sensT list 0 5 10 15 20 25 30 35 40 45 50
TEXT -120 456 Left 2 !.op
TEXT -120 400 Left 2 !.lib PT100.sub
TEXT -272 -88 Left 2 !.include LM358.MOD
