Version 4
SHEET 1 1380 1212
WIRE -128 -336 -192 -336
WIRE 304 -336 224 -336
WIRE -192 -320 -192 -336
WIRE 224 -320 224 -336
WIRE -192 -224 -192 -240
WIRE 224 -224 224 -240
WIRE 272 -112 224 -112
WIRE 384 -112 352 -112
WIRE -144 -96 -192 -96
WIRE -112 -96 -144 -96
WIRE 32 -80 0 -80
WIRE -144 -64 -144 -96
WIRE -112 -64 -144 -64
WIRE 224 -16 224 -112
WIRE 256 -16 224 -16
WIRE 384 -16 384 -112
WIRE 384 -16 368 -16
WIRE 416 -16 384 -16
WIRE 224 16 224 -16
WIRE 224 112 224 80
FLAG 224 -224 0
FLAG 304 -336 VCC
FLAG -192 -224 0
FLAG -192 -336 in
FLAG -192 -96 in
FLAG 32 -80 out
FLAG 224 112 0
FLAG 416 -16 osc2
FLAG 224 -112 osc1
SYMBOL voltage 224 -336 R0
WINDOW 123 0 0 Left 2
WINDOW 39 0 0 Left 2
SYMATTR InstName V1
SYMATTR Value PULSE({VCC-2} {VCC} 0 1m 1m 1m 5m)
SYMBOL voltage -192 -336 R0
WINDOW 123 0 0 Left 2
WINDOW 39 0 0 Left 2
SYMATTR InstName V2
SYMATTR Value PULSE(0 {VCC} 0 5u 5u 0 10u)
SYMBOL res 256 -96 R270
WINDOW 0 32 56 VTop 2
WINDOW 3 0 56 VBottom 2
SYMATTR InstName R1
SYMATTR Value 100k
SYMBOL cap 208 16 R0
SYMATTR InstName C1
SYMATTR Value 1n
SYMBOL addon\\Digital\\74HC\\74hc14 304 -64 R0
SYMATTR InstName U1
SYMBOL addon\\Digital\\74HC\\74hc00 -64 -144 R0
SYMATTR InstName U2
TEXT -216 -616 Left 2 ;.include 74hc.lib
TEXT -224 -504 Left 2 !.tran 0 5m 1u
TEXT -216 -648 Left 2 ;Libraries
TEXT -216 -536 Left 2 ;Simulation
TEXT 80 -664 Left 2 ;Right click with the mouse on the symbol to setup the properties.\n \n   SpiceModel   VCC 0                    \n   SpecLine       VCC=5  SPEED=1 TRIPDT=5e-9     \n \nVCC 0      +supply net is VCC, - supply net is 0(GND)\nVCC=5 is the value of supply voltage\nSPEED=1   delay multiplier\nTRIPDTV=5e-9   internal timestep for A elements
TEXT -224 -408 Left 2 !.param VCC=5
TEXT -216 -584 Left 2 ;.include 74hc_v.lib
TEXT -224 -464 Left 2 !.ic V(osc1)=0
