Version 4
SHEET 1 956 680
WIRE -304 112 -352 112
WIRE -272 112 -304 112
WIRE 128 112 -32 112
WIRE 128 128 128 112
WIRE -272 144 -272 112
WIRE -144 144 -272 144
WIRE -32 144 -32 112
WIRE -144 192 -272 192
WIRE -352 208 -352 192
WIRE -304 208 -352 208
WIRE -272 208 -272 192
WIRE -272 208 -304 208
WIRE -32 240 -32 192
WIRE 80 240 -32 240
WIRE 128 240 128 208
WIRE 128 240 80 240
WIRE 80 256 80 240
FLAG -304 112 inp
FLAG 128 112 out
FLAG 80 256 0
FLAG -304 208 inn
SYMBOL voltage -352 96 R0
WINDOW 3 -29 153 Left 2
WINDOW 123 0 0 Left 2
WINDOW 39 0 0 Left 2
WINDOW 0 33 54 Left 2
SYMATTR Value SINE(0 300 50)
SYMATTR InstName V1
SYMBOL res 112 112 R0
SYMATTR InstName R1
SYMATTR Value 150
SYMBOL bridgerectifier -80 208 R0
WINDOW 38 -39 -131 Left 2
SYMATTR SpiceModel DF04M
SYMATTR InstName U1
TEXT -384 272 Left 2 !.tran 100m
TEXT 200 112 Left 2 !.MEASURE AVG_VIN AVG(V(INp,inn)) from 20ms to 100ms\n.MEASURE AVG_VOUT AVG(V(OUT)) from 20ms to 100ms\n.MEASURE RMS_VIN RMS(V(INp,inn)) from 20ms to 100ms\n.MEASURE RMS_VOUT RMS(V(out)) from 20ms to 100ms\n.MEASURE PR AVG(V(out)*I(R1)) from 20ms to 100ms\n.MEASURE PD AVG(V(INp,out)*I(D1)) from 20ms to 100ms\n.MEASURE PT AVG(V(INp,inn)*I(V1)) from 20ms to 100ms
