Version 4
SHEET 1 880 864
WIRE -272 -416 -304 -416
WIRE -128 -416 -272 -416
WIRE 32 -416 -128 -416
WIRE 192 -416 32 -416
WIRE 512 -416 224 -416
WIRE -1136 -400 -1200 -400
WIRE -832 -400 -1136 -400
WIRE -784 -400 -832 -400
WIRE 32 -368 32 -416
WIRE -1136 -352 -1136 -400
WIRE -128 -336 -128 -416
WIRE -928 -320 -944 -320
WIRE -656 -320 -848 -320
WIRE 192 -320 192 -416
WIRE 288 -320 192 -320
WIRE 320 -320 288 -320
WIRE 512 -320 512 -416
WIRE 512 -320 416 -320
WIRE 560 -320 512 -320
WIRE -784 -272 -784 -400
WIRE -656 -272 -656 -320
WIRE -656 -272 -688 -272
WIRE -608 -272 -656 -272
WIRE 32 -272 32 -288
WIRE 512 -272 512 -320
WIRE 288 -256 288 -320
WIRE -832 -240 -832 -400
WIRE 224 -240 224 -416
WIRE 256 -240 224 -240
WIRE -944 -224 -944 -320
WIRE -864 -224 -944 -224
WIRE -128 -224 -128 -272
WIRE -32 -224 -128 -224
WIRE 368 -224 368 -256
WIRE 368 -224 320 -224
WIRE -736 -208 -800 -208
WIRE -304 -208 -304 -416
WIRE 256 -208 240 -208
WIRE -864 -192 -880 -192
WIRE -128 -176 -128 -224
WIRE 128 -176 32 -176
WIRE 240 -176 240 -208
WIRE 240 -176 128 -176
WIRE -1136 -160 -1136 -272
WIRE -1008 -160 -1136 -160
WIRE -880 -160 -880 -192
WIRE -880 -160 -1008 -160
WIRE -944 -144 -944 -224
WIRE -656 -144 -656 -272
WIRE 32 -144 32 -176
WIRE -1136 -128 -1136 -160
WIRE -128 -80 -128 -96
WIRE 32 -80 -128 -80
WIRE -832 -64 -832 -176
WIRE -832 -64 -944 -64
WIRE -304 -64 -304 -128
WIRE -128 -64 -128 -80
WIRE 288 -64 288 -192
WIRE 512 -64 512 -192
WIRE -1136 -48 -1136 -64
WIRE -832 -48 -832 -64
WIRE -656 -48 -656 -64
WIRE -144 48 -192 48
WIRE -144 80 -144 48
WIRE -96 80 -144 80
WIRE 240 80 -96 80
WIRE 240 128 240 80
WIRE -96 208 -96 80
WIRE 32 208 -96 208
WIRE 240 240 240 208
WIRE 320 240 240 240
WIRE 368 240 320 240
WIRE 416 240 368 240
WIRE -96 256 -96 208
WIRE 240 256 240 240
WIRE 368 256 368 240
WIRE 32 272 32 208
WIRE 0 288 -48 288
WIRE 80 304 64 304
WIRE 176 304 160 304
WIRE 0 320 -32 320
WIRE -96 352 -96 336
WIRE -48 352 -48 288
WIRE -48 352 -96 352
WIRE -96 368 -96 352
WIRE 32 368 32 336
WIRE 240 368 240 352
WIRE 240 368 32 368
WIRE 32 400 32 368
WIRE -96 464 -96 432
WIRE -32 464 -32 320
WIRE 320 464 320 240
WIRE 320 464 -32 464
FLAG -304 -64 0
FLAG 512 -64 0
FLAG 288 -64 0
FLAG 560 -320 VOUT2
IOPIN 560 -320 Out
FLAG -272 -416 VIN
IOPIN -272 -416 In
FLAG -96 464 0
FLAG 368 336 0
FLAG 32 400 0
FLAG 416 240 VOUT1
IOPIN 416 240 Out
FLAG -192 48 VIN
IOPIN -192 48 In
FLAG -128 -64 0
FLAG 128 -176 Vz
FLAG -656 -48 0
FLAG -832 -48 0
FLAG -608 -272 VOUT
IOPIN -608 -272 Out
FLAG -1200 -400 VIN
IOPIN -1200 -400 In
FLAG -1136 -48 0
FLAG -1008 -160 Vz
SYMBOL voltage -304 -224 R0
WINDOW 123 0 0 Left 2
WINDOW 39 0 0 Left 2
WINDOW 0 26 34 Left 2
WINDOW 3 31 60 Left 2
SYMATTR InstName V1
SYMATTR Value 10
SYMBOL npn 320 -256 R270
SYMATTR InstName Q1
SYMATTR Value 2N2222
SYMBOL res 496 -288 R0
SYMATTR InstName R2
SYMATTR Value 10
SYMBOL npn 176 256 R0
SYMATTR InstName Q2
SYMATTR Value 2N2222
SYMBOL zener -80 432 R180
WINDOW 0 24 72 Left 2
WINDOW 3 24 0 Left 2
SYMATTR InstName D2
SYMATTR Value BZX84C6V2L
SYMBOL res -112 240 R0
SYMATTR InstName R3
SYMATTR Value 1k
SYMBOL res 352 240 R0
SYMATTR InstName R5
SYMATTR Value 1k
SYMBOL res 224 112 R0
SYMATTR InstName R4
SYMATTR Value 220
SYMBOL res 176 288 R90
WINDOW 0 59 40 VBottom 2
WINDOW 3 -19 19 VTop 2
SYMATTR InstName R6
SYMATTR Value 30k
SYMBOL zener -112 -272 R180
WINDOW 0 40 40 Left 2
WINDOW 3 -37 5 Left 2
SYMATTR InstName D3
SYMATTR Value BZX384B3V3
SYMBOL res -144 -192 R0
SYMATTR InstName R7
SYMATTR Value 1k
SYMBOL pnp -32 -176 M180
SYMATTR InstName Q3
SYMATTR Value 2N2907
SYMBOL res 16 -384 R0
SYMATTR InstName R8
SYMATTR Value 1.1k
SYMBOL zener 48 -80 R180
WINDOW 0 40 40 Left 2
WINDOW 3 -141 27 Left 2
SYMATTR InstName D4
SYMATTR Value BZX84C6V2L
SYMBOL res -672 -160 R0
WINDOW 3 36 68 Left 2
SYMATTR InstName R1
SYMATTR Value 1K
SYMBOL res -1152 -368 R0
SYMATTR InstName R10
SYMATTR Value 1.1k
SYMBOL res -960 -160 R0
WINDOW 3 36 68 Left 2
SYMATTR InstName R9
SYMATTR Value 10k
SYMBOL res -832 -336 R90
WINDOW 0 0 56 VBottom 2
WINDOW 3 28 56 VBottom 2
SYMATTR InstName R11
SYMATTR Value 5k
SYMBOL zener -1120 -64 R180
WINDOW 0 24 72 Left 2
WINDOW 3 24 44 Left 2
SYMATTR InstName D1
SYMATTR Value BZX384B3V3
SYMBOL npn -784 -208 R270
SYMATTR InstName Q4
SYMATTR Value 2N2222
SYMBOL addon\\Opamps\\OPAMP1_all -832 -272 R0
SYMATTR InstName U4
SYMATTR SpiceModel OP37
SYMBOL addon\\Opamps\\OPAMP1_all 32 240 R0
SYMATTR InstName U5
SYMBOL addon\\Opamps\\OPAMP1_all 288 -288 R0
SYMATTR InstName U6
SYMATTR SpiceModel mc1458
TEXT -288 -104 Left 2 !.dc V1 0 30 1
TEXT 88 424 Left 2 !;dc V1 0 20 1
TEXT -1112 -96 Left 2 ;zener 3V3
