Version 4
SHEET 1 880 724
WIRE -64 -336 -208 -336
WIRE 304 -336 192 -336
WIRE 384 -336 304 -336
WIRE 384 -320 384 -336
WIRE 304 -304 304 -336
WIRE 304 -224 304 -240
WIRE 384 -224 384 -240
WIRE 64 -192 64 -240
WIRE -208 -80 -208 -336
WIRE -144 -80 -208 -80
WIRE -64 -80 -144 -80
WIRE 288 -80 192 -80
WIRE 368 -80 288 -80
WIRE 368 -64 368 -80
WIRE 288 -48 288 -80
WIRE 64 48 64 16
WIRE 288 48 288 32
WIRE 368 48 368 0
WIRE 368 48 288 48
WIRE 288 64 288 48
WIRE -208 176 -208 -80
WIRE -80 176 -208 176
WIRE -48 176 -80 176
WIRE 304 176 208 176
WIRE 368 176 304 176
WIRE 384 176 368 176
WIRE 304 192 304 176
WIRE -80 224 -80 176
WIRE -48 224 -80 224
WIRE 304 288 304 272
WIRE 384 288 384 240
WIRE 384 288 304 288
WIRE -208 320 -208 256
WIRE 304 320 304 288
WIRE 80 336 80 272
WIRE 0 416 -64 416
WIRE 80 416 0 416
WIRE 240 416 80 416
WIRE 272 416 240 416
WIRE 288 416 272 416
WIRE 0 432 0 416
WIRE 80 496 80 416
WIRE 240 512 240 416
WIRE 0 528 0 512
WIRE 48 528 0 528
WIRE 0 560 0 528
WIRE 80 640 80 560
WIRE 80 640 0 640
WIRE 80 672 80 640
WIRE 240 672 240 592
FLAG 80 336 0
FLAG -208 320 0
FLAG 304 320 0
FLAG 368 176 lp2981
FLAG -144 -80 in
FLAG 288 64 0
FLAG 64 48 0
FLAG 368 -80 78L05
FLAG 80 672 0
FLAG 272 416 out2
FLAG 240 672 0
FLAG -144 416 0
FLAG 384 -336 LT1086
FLAG 384 -224 0
FLAG 304 -224 0
FLAG 64 -192 0
SYMBOL References\\lp2981 80 176 R0
SYMATTR InstName U1
SYMBOL voltage -208 160 R0
WINDOW 0 35 57 Left 0
WINDOW 3 35 84 Left 0
WINDOW 123 0 0 Left 0
WINDOW 39 0 0 Left 0
SYMATTR InstName V1
SYMATTR Value ""
SYMBOL res 288 176 R0
SYMATTR InstName R1
SYMATTR Value 50
SYMBOL res 272 -64 R0
SYMATTR InstName R2
SYMATTR Value 50
SYMBOL References\\tl431 64 496 R0
SYMATTR InstName U3
SYMBOL res -16 416 R0
SYMATTR InstName R3
SYMATTR Value 10k
SYMBOL res -16 544 R0
SYMATTR InstName R4
SYMATTR Value 10k
SYMBOL res -48 400 R90
WINDOW 0 0 56 VBottom 0
WINDOW 3 32 56 VTop 0
SYMATTR InstName R5
SYMATTR Value 50
SYMBOL References\\78l05 64 -80 R0
SYMATTR InstName U2
SYMBOL res 224 496 R0
SYMATTR InstName R6
SYMATTR Value 50
SYMBOL RES 368 -336 R0
SYMATTR InstName R7
SYMATTR Value 50
SYMBOL cap 288 -304 R0
SYMATTR InstName C1
SYMATTR Value 10µ
SYMBOL PowerProducts\\LT1086-5 64 -336 R0
SYMATTR InstName U4
SYMBOL cap 352 -64 R0
SYMATTR InstName C2
SYMATTR Value 100n
SYMBOL cap 368 176 R0
WINDOW 0 36 33 Left 0
SYMATTR InstName C3
SYMATTR Value 3.3µ
TEXT -200 304 Left 0 !.dc V1 9 5 0.1
TEXT -184 248 Left 0 ;pile 9V
