Version 4
SHEET 1 880 680
WIRE 80 -144 -96 -144
WIRE 160 -144 80 -144
WIRE 384 -144 160 -144
WIRE 80 -128 80 -144
WIRE 160 -128 160 -144
WIRE -96 -112 -96 -144
WIRE 384 -96 384 -144
WIRE 288 -64 208 -64
WIRE 288 -32 208 -32
WIRE -96 -16 -96 -32
WIRE 288 0 208 0
WIRE -224 32 -320 32
WIRE 48 32 -224 32
WIRE 288 32 208 32
WIRE 480 48 464 48
WIRE -320 64 -320 32
WIRE 288 64 208 64
WIRE -16 96 -80 96
WIRE 48 96 -16 96
WIRE 288 96 208 96
WIRE 288 128 208 128
WIRE -80 144 -80 96
WIRE -320 160 -320 144
WIRE 288 160 208 160
WIRE 128 224 128 208
WIRE 384 224 384 192
WIRE 384 224 128 224
WIRE -80 240 -80 224
WIRE 128 240 128 224
FLAG -80 240 0
FLAG -320 160 0
FLAG 480 48 out
FLAG -16 96 clk
FLAG -96 -16 0
FLAG 128 240 0
FLAG -224 32 in
SYMBOL voltage -80 128 R0
WINDOW 123 0 0 Left 2
WINDOW 39 0 0 Left 2
WINDOW 3 -72 95 Left 2
SYMATTR Value PULSE(0 5 0 0 0 99u 100u)
SYMATTR InstName V1
SYMBOL voltage -320 48 R0
WINDOW 123 0 0 Left 2
WINDOW 39 0 0 Left 2
WINDOW 3 -82 97 Left 2
SYMATTR Value SINE(2.5 2.5 1k 0 0 0m 0)
SYMATTR InstName V2
SYMBOL voltage -96 -128 R0
WINDOW 123 0 0 Left 2
WINDOW 39 0 0 Left 2
WINDOW 0 38 43 Left 2
WINDOW 3 34 71 Left 2
SYMATTR InstName V3
SYMATTR Value 5V
SYMBOL addon\\ADC\\ADC8 144 80 R0
SYMATTR InstName U1
SYMBOL addon\\DAC\\DAC8 416 80 R0
SYMATTR InstName U2
TEXT -48 288 Left 2 !.tran 10m
TEXT -56 248 Left 2 ;fe=50kHz
