Version 4
SHEET 1 880 696
WIRE -640 -336 -720 -336
WIRE -496 -336 -576 -336
WIRE -832 -288 -1232 -288
WIRE -720 -288 -720 -336
WIRE -720 -288 -832 -288
WIRE -496 -288 -496 -336
WIRE -416 -288 -496 -288
WIRE -352 -288 -416 -288
WIRE -272 -288 -352 -288
WIRE -640 -240 -688 -240
WIRE -496 -240 -496 -288
WIRE -496 -240 -576 -240
WIRE -272 -208 -272 -288
WIRE -1232 -192 -1232 -288
WIRE -416 -192 -416 -288
WIRE -832 -176 -832 -288
WIRE -688 -96 -688 -240
WIRE -640 -96 -688 -96
WIRE -496 -96 -576 -96
WIRE -496 -48 -496 -96
WIRE -416 -48 -416 -128
WIRE -416 -48 -496 -48
WIRE -272 -48 -272 -128
WIRE -272 -48 -416 -48
WIRE -1232 -32 -1232 -112
WIRE -832 -32 -832 -112
WIRE -832 -32 -1232 -32
WIRE -688 -32 -688 -96
WIRE -688 -32 -832 -32
WIRE -416 -16 -416 -48
WIRE -720 0 -720 -288
WIRE -640 0 -720 0
WIRE -496 0 -496 -48
WIRE -496 0 -576 0
WIRE -656 240 -736 240
WIRE -512 240 -592 240
WIRE -1408 272 -1648 272
WIRE -736 288 -736 240
WIRE -736 288 -928 288
WIRE -512 288 -512 240
WIRE -432 288 -512 288
WIRE -368 288 -432 288
WIRE -288 288 -368 288
WIRE -1648 336 -1648 272
WIRE -656 336 -704 336
WIRE -512 336 -512 288
WIRE -512 336 -592 336
WIRE -1408 352 -1408 272
WIRE -1296 352 -1408 352
WIRE -928 352 -928 288
WIRE -928 352 -1152 352
WIRE -288 368 -288 288
WIRE -432 400 -432 288
WIRE -1408 432 -1408 416
WIRE -1296 432 -1408 432
WIRE -928 432 -1152 432
WIRE -1648 464 -1648 416
WIRE -1408 464 -1408 432
WIRE -1408 464 -1648 464
WIRE -928 480 -928 432
WIRE -704 480 -704 336
WIRE -704 480 -928 480
WIRE -656 480 -704 480
WIRE -512 480 -592 480
WIRE -1408 496 -1408 464
WIRE -512 528 -512 480
WIRE -432 528 -432 464
WIRE -432 528 -512 528
WIRE -288 528 -288 448
WIRE -288 528 -432 528
WIRE -432 560 -432 528
WIRE -736 576 -736 288
WIRE -656 576 -736 576
WIRE -512 576 -512 528
WIRE -512 576 -592 576
WIRE -1408 608 -1408 576
FLAG -416 -16 0
FLAG -352 -288 +V1
FLAG -432 560 0
FLAG -368 288 +V2
FLAG -1408 608 0
SYMBOL polcap -432 -192 R0
SYMATTR InstName C1
SYMATTR Value 2000µ
SYMATTR SpiceLine Rser=.02
SYMBOL res -288 -224 R0
SYMATTR InstName RLOAD
SYMATTR Value 10
SYMBOL cap -848 -176 R0
SYMATTR InstName C2
SYMATTR Value 100p
SYMBOL diode -640 -320 R270
WINDOW 0 32 32 VTop 2
WINDOW 3 0 32 VBottom 2
SYMATTR InstName D1
SYMATTR Value DI_1N4002
SYMBOL diode -640 -224 R270
WINDOW 0 32 32 VTop 2
WINDOW 3 0 32 VBottom 2
SYMATTR InstName D2
SYMATTR Value DI_1N4002
SYMBOL diode -576 -112 R90
WINDOW 0 0 32 VBottom 2
WINDOW 3 32 32 VTop 2
SYMATTR InstName D3
SYMATTR Value DI_1N4002
SYMBOL diode -576 -16 R90
WINDOW 0 0 32 VBottom 2
WINDOW 3 32 32 VTop 2
SYMATTR InstName D4
SYMATTR Value DI_1N4002
SYMBOL voltage -1232 -208 R0
WINDOW 123 0 0 Left 2
WINDOW 39 24 132 Left 2
SYMATTR SpiceLine Rser=1
SYMATTR InstName V1
SYMATTR Value SINE(0 10 60)
SYMBOL polcap -448 400 R0
SYMATTR InstName C3
SYMATTR Value 2000µ
SYMATTR SpiceLine Rser=.02
SYMBOL res -304 352 R0
SYMATTR InstName RLOAD1
SYMATTR Value 10
SYMBOL diode -656 256 R270
WINDOW 0 32 32 VTop 2
WINDOW 3 0 32 VBottom 2
SYMATTR InstName D5
SYMATTR Value DI_1N4002
SYMBOL diode -656 352 R270
WINDOW 0 32 32 VTop 2
WINDOW 3 0 32 VBottom 2
SYMATTR InstName D6
SYMATTR Value DI_1N4002
SYMBOL diode -592 464 R90
WINDOW 0 0 32 VBottom 2
WINDOW 3 32 32 VTop 2
SYMATTR InstName D7
SYMATTR Value DI_1N4002
SYMBOL diode -592 560 R90
WINDOW 0 0 32 VBottom 2
WINDOW 3 32 32 VTop 2
SYMATTR InstName D8
SYMATTR Value DI_1N4002
SYMBOL Misc\\signal -1648 320 R0
WINDOW 123 0 0 Left 2
WINDOW 39 24 132 Left 2
SYMATTR SpiceLine Rser=1
SYMATTR InstName V2
SYMATTR Value SINE(0 310 50)
SYMBOL res -1424 480 R0
SYMATTR InstName RSIM
SYMATTR Value 1G
SYMBOL addon\\Transformers\\transfo_ideal -1232 400 R0
SYMATTR InstName U1
SYMATTR Value2 LP=2
SYMATTR SpiceLine m=9/230
TEXT -1312 16 Left 2 ;Symbol "voltage"
TEXT -1288 -440 Left 2 !.MODEL DI_1N4002 D  ( IS=76.9p RS=42.0m BV=100 IBV=5.00u CJO=39.8p  M=0.333 N=1.45 TT=4.32u )
TEXT -1288 -544 Left 2 !.tran 0 100m 0 .1m startup
TEXT -1288 -504 Left 2 !.options method=gear
TEXT -1144 -328 Left 2 ;Simplified model
TEXT -1296 160 Left 2 ;Right-mouse-click on inductors and capacitors to set their attributes
TEXT -1040 600 Left 2 ;only required for simulation
TEXT -1600 368 Left 2 ;120V AC 60Hz
TEXT -1800 496 Left 2 ;Symbol "signal" from [Misc]
TEXT -1800 536 Left 2 ;Symbol "voltage" would be OK
