Version 4
SHEET 1 880 680
WIRE -160 96 -192 96
WIRE 128 96 -160 96
WIRE 368 96 192 96
WIRE 448 96 368 96
WIRE -368 112 -432 112
WIRE -432 128 -432 112
WIRE -160 128 -192 128
WIRE 128 128 -160 128
WIRE -160 160 -192 160
WIRE 128 160 -160 160
WIRE 384 160 192 160
WIRE 384 176 384 160
WIRE 448 176 384 176
WIRE 448 192 448 176
WIRE 352 224 352 208
WIRE 352 224 304 224
WIRE 416 224 352 224
WIRE -192 240 -144 224
WIRE -192 240 112 224
WIRE 416 240 416 224
WIRE -368 256 -432 256
WIRE -432 272 -432 256
WIRE -160 272 -192 272
WIRE 112 272 -160 272
WIRE -176 304 -192 304
WIRE -160 304 -176 304
WIRE -176 320 -176 304
WIRE 112 320 -176 320
WIRE 416 320 224 320
FLAG -160 96 V1
FLAG -160 128 V2
FLAG 448 192 0
FLAG 368 96 out1
FLAG -160 160 V3
FLAG 416 320 0
FLAG 352 208 out2
FLAG -144 224 Va
FLAG -160 272 Vb
FLAG -160 304 Vc
SYMBOL addon\\Power_Electrotech\\3ph_gen -272 128 R0
WINDOW 0 -48 -55 Left 2
SYMATTR InstName U1
SYMATTR Value sym=1 f=50 amp=325 phi=0 Ro=1 N=1
SYMBOL res 432 80 R0
SYMATTR InstName R1
SYMATTR Value 10
SYMBOL addon\\Power_Electrotech\\BrdgRect 160 128 R0
SYMATTR InstName U2
SYMBOL addon\\Power_Electrotech\\bridge_PD3 176 288 R0
SYMATTR InstName U3
SYMBOL res 400 224 R0
SYMATTR InstName R2
SYMATTR Value 10
SYMBOL addon\\Power_Electrotech\\3ph_gen -272 272 R0
WINDOW 0 -48 -55 Left 2
SYMATTR InstName U4
SYMATTR Value sym=1 f=50 amp=325 phi=0 Ro=1 N=1
SYMBOL ind 320 208 R90
WINDOW 0 5 56 VBottom 2
WINDOW 3 32 56 VTop 2
SYMATTR InstName L1
SYMATTR Value 100m
TEXT -600 216 Left 2 !.tran 100m startup
