Version 4
SHEET 1 880 680
WIRE 112 80 -144 80
WIRE 448 80 224 80
WIRE -160 96 -192 96
WIRE -144 96 -144 80
WIRE -144 96 -160 96
WIRE -160 128 -192 128
WIRE 112 128 -160 128
WIRE -160 160 -192 160
WIRE -144 160 -160 160
WIRE -144 176 -144 160
WIRE 128 176 -144 176
WIRE 448 176 448 160
FLAG -160 96 V1
FLAG -160 128 V2
FLAG -160 160 V3
FLAG 448 176 0
FLAG -80 208 0
SYMBOL addon\\Power_Electrotech\\3ph_gen -272 128 R0
WINDOW 0 -48 -55 Left 2
SYMATTR InstName U1
SYMATTR Value sym=1 f=50 amp=325 phi=0 Ro=1 N=1
SYMBOL res 432 64 R0
SYMATTR InstName R1
SYMATTR Value 10
TEXT -368 280 Left 2 !.tran 100m startup
