Version 4
SHEET 1 1352 692
WIRE 96 -288 64 -288
WIRE 256 -288 96 -288
WIRE 400 -288 256 -288
WIRE 592 -288 496 -288
WIRE 768 -288 592 -288
WIRE 816 -288 768 -288
WIRE 928 -288 816 -288
WIRE 1024 -288 928 -288
WIRE 400 -240 400 -288
WIRE 496 -240 496 -288
WIRE 592 -240 592 -288
WIRE 816 -240 816 -288
WIRE 64 -192 64 -288
WIRE 256 -176 256 -288
WIRE 928 -176 928 -288
WIRE 1024 -160 1024 -288
WIRE 816 -128 816 -160
WIRE 816 -128 528 -128
WIRE 816 -112 816 -128
WIRE 368 -32 320 -32
WIRE 592 -32 592 -160
WIRE 592 -32 528 -32
WIRE 624 -32 592 -32
WIRE 64 0 64 -112
WIRE 256 0 256 -112
WIRE 320 0 320 -32
WIRE 816 0 816 -32
WIRE 928 0 928 -112
WIRE 1024 0 1024 -80
FLAG 816 0 0
FLAG 64 0 0
FLAG 320 0 0
FLAG 768 -288 out
FLAG 96 -288 in
FLAG 256 0 0
FLAG 1024 0 0
FLAG 928 0 0
FLAG 624 -32 err
SYMBOL voltage 64 -208 R0
WINDOW 123 0 0 Left 0
WINDOW 39 41 66 Left 0
SYMATTR SpiceLine Rser=1
SYMATTR InstName V1
SYMATTR Value PWL(0 1 10 10)
SYMBOL res 800 -256 R0
SYMATTR InstName R1
SYMATTR Value 182k
SYMBOL res 800 -128 R0
SYMATTR InstName R2
SYMATTR Value 60k
SYMBOL res 576 -256 R0
SYMATTR InstName R3
SYMATTR Value 100k
SYMBOL cap 912 -176 R0
SYMATTR InstName C1
SYMATTR Value 1µ
SYMATTR SpiceLine Rser=.1
SYMBOL res 1008 -176 R0
SYMATTR InstName R5
SYMATTR Value 30
SYMBOL cap 240 -176 R0
SYMATTR InstName C2
SYMATTR Value 1µ
SYMBOL lp2951 464 -160 R0
SYMATTR InstName U1
TEXT 72 -408 Left 0 !..tran 10
TEXT 408 -760 Left 0 ;It seems that this LP2951 model is from a PSPICE library file. \nThis means you need a PSPICE license to use it. \n \nThe model requires a change in the model definition.\n *+ IB=75u\n+ IB=20n\nOther deficiencies: The quiescent current is not modeled.\nThe model uses net 0 for ground. \nThere may be even more limitations.\n \nVREF=Vfb=1.235V \n VOUT=VREF(1+R1/R2)\nVOUT=1.235*(1+1)=2.47V\n \nLP2951 divider: Sense-182k-Tap-60k-0
TEXT 72 -456 Left 0 !.options gminsteps=0
TEXT 368 32 Left 0 ;Model file: lp2951.sub
