Version 4
SHEET 1 1504 1164
WIRE 544 -48 432 -48
WIRE 592 -48 544 -48
WIRE 624 -48 592 -48
WIRE 736 -48 688 -48
WIRE 432 -16 432 -48
WIRE 592 0 592 -48
WIRE 624 0 592 0
WIRE 736 0 688 0
WIRE 592 48 592 0
WIRE 624 48 592 48
WIRE 736 48 688 48
WIRE 592 96 592 48
WIRE 624 96 592 96
WIRE 736 96 688 96
WIRE 592 144 592 96
WIRE 624 144 592 144
WIRE 736 144 688 144
FLAG 432 64 0
FLAG 544 -48 in
SYMBOL addon\\math\\Math1 656 0 R0
SYMATTR InstName U1
SYMBOL addon\\math\\Math1 656 48 R0
SYMATTR SpiceModel round
SYMATTR InstName U2
SYMBOL addon\\math\\Math1 656 96 R0
SYMATTR SpiceModel pow
SYMATTR InstName U3
SYMBOL addon\\math\\Math1 656 144 R0
SYMATTR SpiceModel sin
SYMATTR SpiceLine2 phi=90
SYMATTR InstName U4
SYMBOL addon\\math\\Math1 656 -48 R0
SYMATTR SpiceModel 1/x
SYMATTR SpiceLine y=1/100
SYMATTR InstName U5
SYMBOL voltage 432 -32 R0
WINDOW 123 0 0 Left 2
WINDOW 39 0 0 Left 2
SYMATTR InstName V1
SYMATTR Value SINE(0 3 1k)
TEXT 448 120 Left 2 !.tran 2ms
TEXT -176 -176 Left 2 ;* 1/x\n* abs(x)\n* acos(x)\n* acosh(x)\n* asin(x)\n* asinh(x)\n* atan(x)\n* atanh(x)\n* ceil(x)\n* cos(x)\n* cosh(x)\n* exp(x)\n* floor(x)\n* int(x)\n* ln(x)\n* log(x)\n* log10(x)\n* mod1(x,y)     (mod1 (one input) to avoid cross-naming with mod(a,b) from Math2)\n* pow(x,y)\n* pwr(x,y)\n* pwrs(x,y)\n* quant(x)\n* round(x)\n* sgn(x)\n* sin(x)\n* sinh(x)\n* sqrt(x)\n* tan(x)\n* tanh(x)\n* u(x)\n* uramp(x)\n*\n*  where {x} is the input and {y} is a parameter.
TEXT 408 456 Left 2 ;*\n*\n* [PARAMETERS]\n*\n* y                             = 1. a minimum estimated number to avoid division by zero (1/x);\n*                                 2. fixed number for mod1();\n*                                 3. exponent for pwr(), pow() and pwrs();\n*                                 4. quantifying number in quant();\n* phi           [rad]           = displacement angle for trigonometric functions.
TEXT 0 -144 Left 2 ;file : sub\\addon\\mathfunct.sub
