Version 4
SHEET 1 880 680
WIRE -368 -64 -592 -64
WIRE -592 -16 -592 -64
WIRE -368 48 -368 -64
WIRE -368 48 -448 48
WIRE -272 48 -368 48
WIRE -592 112 -592 64
WIRE 16 112 -32 112
WIRE 176 112 16 112
WIRE 384 112 352 112
WIRE 592 112 592 96
WIRE 768 112 768 96
WIRE -448 144 -448 128
WIRE -400 144 -448 144
WIRE -368 144 -400 144
WIRE -272 144 -272 128
WIRE -224 144 -272 144
WIRE -448 160 -448 144
WIRE -272 160 -272 144
WIRE 64 160 32 160
WIRE 176 160 144 160
WIRE 416 160 352 160
WIRE 32 208 32 160
WIRE 176 208 32 208
WIRE 432 208 352 208
WIRE 592 208 592 192
WIRE 432 224 432 208
WIRE -272 256 -272 240
WIRE 176 256 32 256
WIRE 768 256 768 192
WIRE 768 256 352 256
WIRE -448 288 -448 240
FLAG 432 224 0
FLAG 384 112 12V
FLAG 416 160 out
FLAG 592 208 0
FLAG 592 96 12V
FLAG -592 112 0
FLAG -448 288 0
FLAG -272 256 0
FLAG -224 144 V1
FLAG -400 144 V2
FLAG 32 256 V2
FLAG 16 112 V1
FLAG 768 96 0
SYMBOL res 48 176 R270
WINDOW 0 32 56 VTop 2
WINDOW 3 0 56 VBottom 2
SYMATTR InstName R1
SYMATTR Value 76
SYMBOL INA126P 224 128 R0
SYMATTR InstName U1
SYMBOL voltage 592 96 R0
WINDOW 123 0 0 Left 2
WINDOW 39 0 0 Left 2
SYMATTR InstName V2
SYMATTR Value 12
SYMBOL voltage -592 -32 R0
WINDOW 3 13 117 Left 2
WINDOW 123 31 81 Left 2
WINDOW 39 0 0 Left 2
SYMATTR Value 5
SYMATTR InstName V1
SYMBOL res -464 144 R0
SYMATTR InstName R2
SYMATTR Value 10k
SYMBOL res -288 144 R0
SYMATTR InstName R3
SYMATTR Value 10k
SYMBOL res -288 32 R0
SYMATTR InstName R4
SYMATTR Value 100
SYMBOL voltage 768 96 R0
WINDOW 123 0 0 Left 2
WINDOW 39 0 0 Left 2
SYMATTR InstName V3
SYMATTR Value 5
SYMBOL addon\\sensors\\temperature\\PT100\\PT100 -464 32 R0
SYMATTR InstName U2
SYMATTR Value sensT={Temp}
TEXT -560 392 Left 2 !.step param TEmp list 0 5 10 15 20 25 30 35 40 45 50
TEXT -560 416 Left 2 !.op
