Version 4
SHEET 1 880 680
WIRE 192 96 96 96
SYMBOL addon\\sensors\\temperature\\lm35\\LM35 64 96 R0
SYMATTR InstName U1
TEXT 128 232 Left 2 !.step temp -55 125 1
TEXT 32 256 Left 2 !.op
TEXT -456 136 Left 2 ;10mV/°C. \nPower and ground pins not considered!
