Version 4
SHEET 1 1264 1316
WIRE 544 -352 96 -352
WIRE 496 -256 496 -304
WIRE 544 -256 544 -352
WIRE 320 -80 224 -80
WIRE 368 -80 320 -80
WIRE 464 -80 432 -80
WIRE 496 -80 496 -176
WIRE 496 -80 464 -80
WIRE 224 -64 224 -80
WIRE -480 -16 -608 -16
WIRE -384 -16 -480 -16
WIRE -192 -16 -384 -16
WIRE 96 -16 96 -352
WIRE 96 -16 -192 -16
WIRE 544 -16 544 -176
WIRE 640 -16 544 -16
WIRE 768 -16 704 -16
WIRE 944 -16 768 -16
WIRE 1152 -16 944 -16
WIRE -608 32 -608 -16
WIRE -480 32 -480 -16
WIRE -192 32 -192 -16
WIRE 224 32 224 0
WIRE 1152 64 1152 -16
WIRE 544 96 544 -16
WIRE 768 96 768 -16
WIRE 944 96 944 -16
WIRE -384 112 -384 -16
WIRE -608 128 -608 96
WIRE -608 128 -752 128
WIRE 64 128 -64 128
WIRE 320 128 320 -80
WIRE 320 128 288 128
WIRE -752 144 -752 128
WIRE 64 176 0 176
WIRE 496 176 288 176
WIRE -192 224 -192 112
WIRE -192 224 -304 224
WIRE 64 224 -192 224
WIRE 336 224 288 224
WIRE 1152 224 1152 144
WIRE 1152 224 1056 224
WIRE -752 240 -752 224
WIRE -720 240 -752 240
WIRE -480 240 -480 96
WIRE -480 240 -720 240
WIRE -304 256 -304 224
WIRE -192 256 -192 224
WIRE 768 256 768 160
WIRE 944 256 944 176
WIRE -608 272 -608 128
WIRE -480 272 -480 240
WIRE 64 272 32 272
WIRE 352 272 288 272
WIRE 464 272 464 -80
WIRE 464 272 432 272
WIRE 1152 288 1152 224
WIRE 32 352 32 272
WIRE 544 352 544 192
WIRE 544 352 32 352
WIRE -608 384 -608 336
WIRE -480 384 -480 336
WIRE -480 384 -608 384
WIRE -384 384 -384 176
WIRE -384 384 -480 384
WIRE -304 384 -304 320
WIRE -304 384 -384 384
WIRE -192 384 -192 336
WIRE -192 384 -304 384
WIRE 0 384 0 176
WIRE 544 384 544 352
WIRE -480 416 -480 384
WIRE 0 480 0 448
WIRE -656 496 -784 496
WIRE -528 496 -576 496
WIRE -432 496 -528 496
WIRE 1152 496 1152 368
WIRE 544 512 544 464
WIRE -784 528 -784 496
WIRE -528 528 -528 496
WIRE -432 528 -432 496
WIRE -64 576 -64 128
WIRE 1056 576 1056 224
WIRE 1056 576 -64 576
WIRE -784 656 -784 608
WIRE -528 656 -528 592
WIRE -432 656 -432 608
FLAG -480 416 0
FLAG 336 224 0
FLAG 544 512 0
FLAG 0 480 0
FLAG 1152 496 0
FLAG 944 256 0
FLAG 768 256 0
FLAG 224 32 0
FLAG 496 -304 0
FLAG -784 656 0
FLAG -528 656 0
FLAG -432 656 0
FLAG -432 496 FilterOUT
FLAG 320 128 vcc
FLAG -752 128 p
FLAG -720 240 m
SYMBOL diode -592 96 R180
WINDOW 0 24 72 Left 0
WINDOW 3 24 0 Left 0
SYMATTR InstName D1
SYMATTR Value BU4G
SYMBOL voltage -752 128 M0
WINDOW 123 0 0 Left 0
WINDOW 39 0 0 Left 0
SYMATTR InstName Vs
SYMATTR Value SINE(0 141.4 60)
SYMBOL diode -592 336 R180
WINDOW 0 24 72 Left 0
WINDOW 3 24 0 Left 0
SYMATTR InstName D2
SYMATTR Value BU4G
SYMBOL diode -464 96 R180
WINDOW 0 24 72 Left 0
WINDOW 3 24 0 Left 0
SYMATTR InstName D3
SYMATTR Value BU4G
SYMBOL diode -464 336 R180
WINDOW 0 24 72 Left 0
WINDOW 3 24 0 Left 0
SYMATTR InstName D4
SYMATTR Value BU4G
SYMBOL cap -400 112 R0
SYMATTR InstName C1
SYMATTR Value 1µF
SYMBOL res -208 16 R0
SYMATTR InstName R1
SYMATTR Value 2.2meg
SYMBOL res -208 240 R0
SYMATTR InstName R2
SYMATTR Value 7.5k
SYMBOL cap -320 256 R0
SYMATTR InstName C2
SYMATTR Value 0.01µF
SYMBOL diode 640 0 R270
WINDOW 0 32 32 VTop 0
WINDOW 3 0 32 VBottom 0
SYMATTR InstName D5
SYMATTR Value MUR130
SYMBOL nmos 496 96 R0
SYMATTR InstName M1
SYMATTR Value MTP8N50
SYMATTR Prefix X
SYMBOL res 528 368 R0
SYMATTR InstName R3
SYMATTR Value 0.1
SYMBOL cap -16 384 R0
WINDOW 123 24 92 Left 0
SYMATTR InstName C3
SYMATTR Value 0.68µ
SYMATTR Value2 IC=2.655
SYMBOL cap 752 96 R0
WINDOW 39 24 92 Left 0
WINDOW 123 24 120 Left 0
SYMATTR InstName C4
SYMATTR Value 220µ
SYMATTR SpiceLine Rser=0.3702
SYMATTR Value2 IC=230
SYMBOL res 928 80 R0
SYMATTR InstName R4
SYMATTR Value 657
SYMBOL res 1136 48 R0
SYMATTR InstName R5
SYMATTR Value 1meg
SYMBOL res 1136 272 R0
SYMATTR InstName R6
SYMATTR Value 11k
SYMBOL res 336 288 R270
WINDOW 0 32 56 VTop 0
WINDOW 3 0 56 VBottom 0
SYMATTR InstName R7
SYMATTR Value 22k
SYMBOL ind2 560 -272 M0
WINDOW 0 -24 32 Left 0
WINDOW 3 -48 74 Left 0
SYMATTR InstName L1
SYMATTR Value 320µ
SYMBOL ind2 480 -272 R0
WINDOW 0 -24 32 Left 0
WINDOW 3 -59 76 Left 0
SYMATTR InstName L2
SYMATTR Value 2.08µ
SYMBOL diode 432 -96 R90
WINDOW 0 0 32 VBottom 0
WINDOW 3 32 32 VTop 0
SYMATTR InstName D6
SYMATTR Value DN4934
SYMBOL cap 208 -64 R0
WINDOW 0 44 21 Left 0
WINDOW 123 37 89 Left 0
SYMATTR InstName C5
SYMATTR Value 100µ
SYMATTR Value2 IC=17V
SYMBOL mc33262 176 192 R0
SYMATTR InstName U1
SYMBOL bv -784 512 R0
SYMATTR InstName B1
SYMATTR Value V=-I(Vs)
SYMBOL ind -672 512 R270
WINDOW 0 32 56 VTop 0
WINDOW 3 5 56 VBottom 0
SYMATTR InstName L3
SYMATTR Value 2m
SYMBOL cap -544 528 R0
SYMATTR InstName C6
SYMATTR Value 2µ
SYMBOL res -448 512 R0
SYMATTR InstName R8
SYMATTR Value 22.36
TEXT 424 632 Left 0 !.tran 0.5u 33.3333m 10u 2u uic
TEXT 216 -600 Left 0 !.MODEL BU4G D (IS=10.7N RS=3M N=1.67 BV=400 IBV=5U\n+ CJO=165P VJ=.75 M=.333 TT=4.32U)
TEXT 216 -432 Left 0 !.MODEL MUR130 D BV=400 CJO=15.7P IBV=5U IS=1.08U M=.310\n+ N=2.59 RS=55.5M TT=108N VJ=.75
TEXT -808 -760 Left 0 !.SUBCKT MTP8N50  10 20 40\n*EXEMPT 7118 269 -70516983\n*     TERMINALS:  D  G  S\n* MOT 500 VOLT  8 AMP  .8 OHM  N-CHANNEL POWER MOSFET  02-17-1993\nM1   1  2  3  3  DMOS L=1U W=1U\nRD  100  1  .379\nRS  30  3  21M\nRG  20  2  18.7\nCGS  2  3  1.45N\nEGD 12  0  2  1  1\nVFB 14  0  0\nFFB  2  1  VFB  1\nCGD 13 14  1.52N\nR1  13  0  1\nD1  12 13  DLIM\nDDG 15 14  DCGD\nR2  12 15  1\nD2  15  0  DLIM\nDSD  3 10  DSUB\nLD 100 10  4N\nLS  30 40  7.5N\n.MODEL DMOS NMOS (LEVEL=3 THETA=60M VMAX=1.04MEG ETA=2M VTO=3.2 KP=3.46)\n.MODEL DCGD D (CJO=1.52N VJ=.6 M=.68)\n.MODEL DSUB D (IS=33.2N N=1.5 RS=43.7M BV=500 CJO=860P VJ=.8 M=.42 TT=600N)\n.MODEL DLIM D (IS=100U)\n.ENDS
TEXT 216 -520 Left 0 !.MODEL DN4934 D BV=1.33E+02 CJO=2.39E-11 IBV=1.00E-06\n+ IS=2.06E-08 M=.41 N=2.00 RS=2.26E-02 TT=2.16E-07 VJ=.75
TEXT 560 -152 Left 0 !K12 L1 L2 1
TEXT -480 448 Left 0 ;Filtered version of source current
