Version 4
SHEET 1 1572 772
WIRE -144 64 -272 64
WIRE 320 64 -144 64
WIRE -272 112 -272 64
WIRE -272 256 -272 192
WIRE -192 256 -272 256
WIRE -144 256 -144 64
WIRE -64 256 -144 256
WIRE 320 256 320 64
WIRE 320 256 272 256
WIRE -272 304 -272 256
WIRE -192 336 -192 256
WIRE -64 336 -192 336
WIRE 336 336 272 336
WIRE 528 336 336 336
WIRE 624 336 528 336
WIRE 784 336 704 336
WIRE 832 336 784 336
WIRE 944 336 832 336
WIRE 1088 336 944 336
WIRE 1216 336 1088 336
WIRE 784 368 784 336
WIRE 1216 368 1216 336
WIRE 528 384 528 336
WIRE 944 384 944 336
WIRE 1088 384 1088 336
WIRE -272 416 -272 384
WIRE -272 416 -544 416
WIRE -112 416 -272 416
WIRE -64 416 -112 416
WIRE 288 416 272 416
WIRE 304 416 288 416
WIRE 384 416 368 416
WIRE -544 464 -544 416
WIRE 384 464 384 416
WIRE -272 480 -272 416
WIRE -64 496 -112 496
WIRE 320 496 272 496
WIRE 528 496 528 448
WIRE 784 496 784 432
WIRE 1088 496 1088 464
WIRE 1216 496 1216 448
WIRE 320 544 320 496
WIRE 944 544 944 464
WIRE 944 544 320 544
WIRE 944 592 944 544
WIRE -544 608 -544 544
WIRE -272 608 -272 544
WIRE -112 608 -112 496
WIRE 944 688 944 672
FLAG -544 608 0
FLAG -272 608 0
FLAG 384 464 0
FLAG 528 496 0
FLAG 784 496 0
FLAG 832 336 Vo
FLAG 944 688 0
FLAG 1088 496 0
FLAG -112 608 0
FLAG 288 416 ct
FLAG 336 336 swe
FLAG -112 416 vdd
FLAG 320 496 cinv
FLAG 1216 496 0
FLAG 320 64 swc
SYMBOL voltage -544 448 R0
WINDOW 123 0 0 Left 2
WINDOW 39 24 132 Left 2
SYMATTR SpiceLine Rser=0.3
SYMATTR InstName V1
SYMATTR Value PWL(0 0 4m 25)
SYMBOL res -256 400 R180
WINDOW 0 -39 87 Left 2
WINDOW 3 -52 44 Left 2
SYMATTR InstName R1
SYMATTR Value 1
SYMBOL cap 304 432 R270
WINDOW 0 32 32 VTop 2
WINDOW 3 0 32 VBottom 2
SYMATTR InstName C2
SYMATTR Value 470p
SYMBOL schottky 544 448 R180
WINDOW 0 -34 67 Left 2
WINDOW 3 -86 3 Left 2
SYMATTR InstName D1
SYMATTR Value 1N5819
SYMATTR Description Diode
SYMATTR Type diode
SYMBOL ind2 608 352 R270
WINDOW 0 32 56 VTop 2
WINDOW 3 4 56 VBottom 2
SYMATTR InstName L1
SYMATTR Value 220µ
SYMATTR SpiceLine Rser=0.5
SYMATTR Type ind
SYMBOL res 928 368 R0
SYMATTR InstName R2
SYMATTR Value 1.65k
SYMBOL res 928 576 R0
SYMATTR InstName R3
SYMATTR Value 1.2k
SYMBOL load2 1088 384 R0
WINDOW 123 0 0 Left 2
WINDOW 39 0 0 Left 2
SYMATTR InstName I1
SYMATTR Value 0.5m
SYMBOL res 1200 352 R0
SYMATTR InstName R4
SYMATTR Value 27
SYMBOL polcap 768 368 R0
WINDOW 39 24 113 Left 2
WINDOW 40 24 85 Left 2
SYMATTR SpiceLine Rser=0.1
SYMATTR SpiceLine2 IC=0
SYMATTR InstName C3
SYMATTR Value 330µ
SYMBOL polcap -288 480 R0
WINDOW 39 24 113 Left 2
WINDOW 40 24 85 Left 2
SYMATTR SpiceLine Rser=0.1
SYMATTR SpiceLine2 IC=25
SYMATTR InstName C1
SYMATTR Value 68µ
SYMBOL mc34063 176 352 R0
SYMATTR InstName U1
SYMBOL res -288 96 R0
SYMATTR InstName R5
SYMATTR Value R=if(time>4m,1m,1k)
TEXT -360 -104 Left 2 !.tran 0 10m .1u 100n
TEXT -360 -144 Left 2 !.inc MC34063.lib
TEXT -360 -64 Left 2 !.options Gmin=1e-10  abstol=1e-10 reltol=0.003 method=Gear
TEXT -368 -1048 Left 2 ;A DC/DC BUCK CONVERTER WITH A MOTOROLA MC34063\nTest circuit and models from Helmut Sennewald    03/14/2004\nThe symbol is from Drew.\n \nDon't remove this copyright notice.\nThe used models are property of ONSEMI and/or  Intusoft(www.intusoft.com).\nThey are from ONsemi's webpage and also from the Intusoft's SPICE (ICAP/4 demo 8.3.10).\nThe links are www.onsemi.com and www.intusoft.com .\n \n \nThree of the models have been modified to LTSPICE syntax.\nThe PSPICE model runs without** any modifiacation in LTSPICE.\nSo we have now three models available for the 34063 and one model for the MC33063. \nThe MC34063 model and the MC34063p model have the closest match, but I don't\nknow if they best match the real part.\n \n    MC34063   (modified* original model included in ICAP/4 demo)\n    MC34063p  (original ONsemi PSPICE model) **\n    MC34063a  (modified* original ONsemi model for ICAP/4 demo)\n    MC33063    (modified* original ONsemi model for ICAP/4 demo) \n \n   *   Means syntax of IF-THEN-ELSE statement adapted to LTSPICE\n       All SPICE command lines starting with a comment "*" have been \n       changed to be compatible with LTSPICE. \n      \n   ** This has been possible without modification, because no SW(itch) statement \n       has been used.  VT and VH of SW are defined differently in PSPICE.\n \nSet the initial conditions of the capacitors C1 and C3 accordingly to your simulation needs.\nThese are the IC=...  properties of the filter capacitors in the schematic.
TEXT -360 -24 Left 2 !.options srcsteps=0
TEXT -376 24 Left 2 ;For simulation only!
LINE Normal -288 80 -336 32 2
LINE Normal -288 64 -288 80 2
LINE Normal -304 80 -288 80 2
CIRCLE Normal -176 224 -336 96 2
