Version 4
SHEET 1 916 680
WIRE 160 48 144 48
WIRE 288 48 240 48
WIRE 336 48 288 48
WIRE 512 48 416 48
WIRE 688 48 512 48
WIRE 704 48 688 48
WIRE 288 112 288 48
WIRE 512 144 512 48
WIRE 704 192 704 48
WIRE -336 208 -384 208
WIRE -224 208 -336 208
WIRE -64 208 -144 208
WIRE 144 208 144 48
WIRE 144 208 96 208
WIRE -112 288 -384 288
WIRE -64 288 -112 288
WIRE 464 288 464 208
WIRE 464 288 96 288
WIRE 704 304 704 272
WIRE 768 304 704 304
WIRE -112 320 -112 288
WIRE 288 320 288 176
WIRE 512 320 512 208
WIRE 512 320 288 320
WIRE 528 320 512 320
WIRE 560 320 528 320
WIRE 704 320 704 304
WIRE 704 320 640 320
FLAG 768 304 0
FLAG -112 320 0
FLAG 528 320 out
FLAG 688 48 ph
FLAG -336 208 command
SYMBOL addon\\triacs\\triac_teccor 480 144 R0
SYMATTR InstName U1
SYMATTR SpiceModel Q8025R5
SYMBOL addon\\driver_triac\\moc302X -16 224 R0
SYMATTR InstName U2
SYMBOL res 256 32 R90
WINDOW 0 0 56 VBottom 2
WINDOW 3 32 56 VTop 2
SYMATTR InstName R1
SYMATTR Value 470
SYMBOL voltage 704 176 R0
WINDOW 123 0 0 Left 2
WINDOW 39 0 0 Left 2
SYMATTR InstName V1
SYMATTR Value SINE(0 100 50)
SYMBOL res -128 192 R90
WINDOW 0 0 56 VBottom 2
WINDOW 3 32 56 VTop 2
SYMATTR InstName R3
SYMATTR Value 330
SYMBOL voltage -384 192 R0
WINDOW 0 41 61 Left 2
WINDOW 3 -276 123 Left 2
WINDOW 123 0 0 Left 2
WINDOW 39 0 0 Left 2
SYMATTR InstName V2
SYMATTR Value PULSE(0 5 5ms 1n 1n 100u 10ms)
SYMBOL res 656 304 R90
WINDOW 0 0 56 VBottom 2
WINDOW 3 32 56 VTop 2
SYMATTR InstName R4
SYMATTR Value 100
SYMBOL res 320 64 R270
WINDOW 0 32 56 VTop 2
WINDOW 3 0 56 VBottom 2
SYMATTR InstName R2
SYMATTR Value 470
SYMBOL cap 272 112 R0
SYMATTR InstName C1
SYMATTR Value 47n
TEXT -210 356 Left 2 !.tran 100ms
TEXT -696 24 Left 2 ;http://www.datasheetcatalog.org/datasheet/motorola/MOC3021.pdf
