Version 4
SHEET 1 1300 680
WIRE 432 -176 256 -176
WIRE 512 -176 432 -176
WIRE 992 -64 848 -64
WIRE 1104 -64 1072 -64
WIRE 256 -16 256 -176
WIRE 960 32 960 16
WIRE 848 48 848 -64
WIRE 928 48 848 48
WIRE 1104 64 1104 -64
WIRE 1104 64 992 64
WIRE 1184 64 1104 64
WIRE 512 80 512 -176
WIRE 720 80 592 80
WIRE 928 80 800 80
WIRE 464 112 352 112
WIRE 592 112 592 80
WIRE 592 112 544 112
WIRE 848 112 848 48
WIRE 960 112 960 96
WIRE 352 144 352 112
WIRE 848 208 848 192
WIRE 848 208 704 208
WIRE 256 224 256 64
WIRE 512 224 512 144
WIRE 704 240 704 208
WIRE 352 272 352 224
FLAG 352 272 0
FLAG 512 224 0
FLAG 256 224 0
FLAG 960 16 vdd
FLAG 1184 64 out1
IOPIN 1184 64 Out
FLAG 960 112 0
FLAG 432 -176 VDD
FLAG 704 320 0
SYMBOL voltage 352 128 R0
WINDOW 123 0 0 Left 2
WINDOW 39 0 0 Left 2
SYMATTR InstName VTEMP
SYMATTR Value 23
SYMBOL res 1088 -80 R90
WINDOW 0 0 56 VBottom 2
WINDOW 3 32 56 VTop 2
SYMATTR InstName R1
SYMATTR Value 41.2k
SYMBOL res 832 208 M180
WINDOW 0 36 76 Left 2
WINDOW 3 36 40 Left 2
SYMATTR InstName R2
SYMATTR Value 10k
SYMBOL res 816 96 M270
WINDOW 0 32 56 VTop 2
WINDOW 3 0 56 VBottom 2
SYMATTR InstName R4
SYMATTR Value 7k
SYMBOL voltage 704 224 R0
WINDOW 123 0 0 Left 2
WINDOW 39 0 0 Left 2
SYMATTR InstName V1
SYMATTR Value 0.5
SYMBOL MCP9701 496 80 R0
SYMATTR InstName U2
SYMBOL voltage 256 -32 R0
WINDOW 123 0 0 Left 2
WINDOW 39 0 0 Left 2
SYMATTR InstName V2
SYMATTR Value 9V
SYMBOL addon\\Opamps\\OPAMP1_all 960 0 R0
SYMATTR InstName U1
TEXT -136 -88 Left 2 !.op
TEXT -136 -40 Left 2 !.dc VTEMP 0 50 .5
