Version 4
SHEET 1 880 680
WIRE -320 112 -432 112
WIRE -176 112 -240 112
WIRE 16 112 -96 112
WIRE 160 112 96 112
WIRE -272 160 -288 160
WIRE -256 160 -272 160
WIRE 64 160 48 160
WIRE 80 160 64 160
WIRE 496 160 448 160
WIRE 544 160 496 160
WIRE -256 176 -256 160
WIRE 80 176 80 160
WIRE -432 192 -432 112
WIRE -288 192 -432 192
WIRE -96 192 -96 112
WIRE 48 192 -96 192
WIRE -192 208 -224 208
WIRE -176 208 -176 112
WIRE -176 208 -192 208
WIRE -160 208 -176 208
WIRE 144 208 112 208
WIRE 160 208 160 112
WIRE 160 208 144 208
WIRE 176 208 160 208
WIRE -320 224 -352 224
WIRE -288 224 -320 224
WIRE 16 224 0 224
WIRE 48 224 16 224
WIRE -272 256 -288 256
WIRE -256 256 -256 240
WIRE -256 256 -272 256
WIRE 64 256 48 256
WIRE 80 256 80 240
WIRE 80 256 64 256
WIRE 448 256 448 240
WIRE 480 256 448 256
WIRE -432 304 -432 272
WIRE -96 304 -96 272
WIRE 0 304 -96 304
WIRE 0 320 0 304
WIRE 480 336 448 336
WIRE 496 336 480 336
FLAG 0 320 0
FLAG 480 256 0
FLAG 144 208 out
FLAG 64 160 vcc
FLAG 496 160 vcc
FLAG 480 336 vee
FLAG 64 256 vee
FLAG -352 304 0
FLAG -192 208 out1
FLAG -272 160 vcc
FLAG -272 256 vee
FLAG -432 304 0
FLAG -320 224 vin
FLAG 16 224 vin
SYMBOL OpAmp.Add\\OPAMP1_all 80 144 R0
SYMATTR InstName U1
SYMATTR SpiceModel LM741/NS
SYMBOL res -112 176 R0
SYMATTR InstName R1
SYMATTR Value 100
SYMBOL voltage 448 144 R0
WINDOW 123 0 0 Left 0
WINDOW 39 0 0 Left 0
SYMATTR InstName V2
SYMATTR Value 15
SYMBOL res 112 96 R90
WINDOW 0 0 56 VBottom 0
WINDOW 3 32 56 VTop 0
SYMATTR InstName R4
SYMATTR Value 220
SYMBOL voltage 448 240 R0
WINDOW 123 0 0 Left 0
WINDOW 39 0 0 Left 0
SYMATTR InstName V1
SYMATTR Value 15
SYMBOL res -448 176 R0
WINDOW 0 -16 30 Left 0
WINDOW 3 -25 66 Left 0
SYMATTR InstName R3
SYMATTR Value 100
SYMBOL res -224 96 R90
WINDOW 0 0 56 VBottom 0
WINDOW 3 32 56 VTop 0
SYMATTR InstName R5
SYMATTR Value 220
SYMBOL voltage -352 208 R0
WINDOW 123 0 0 Left 0
WINDOW 39 0 0 Left 0
SYMATTR InstName V3
SYMATTR Value SINE(0 3 1k)
SYMBOL Opamps\\LT1112 -256 144 R0
SYMATTR InstName U2
TEXT -16 424 Left 0 !;dc temp 0 100 1
TEXT -16 408 Left 0 !.tran 10m
