Version 4
SHEET 1 880 680
WIRE -384 -224 -400 -224
WIRE -256 -224 -304 -224
WIRE 96 -208 16 -208
WIRE 112 -208 96 -208
WIRE 16 -192 16 -208
WIRE 112 -192 112 -208
WIRE -336 -144 -352 -144
WIRE -320 -144 -336 -144
WIRE -320 -128 -320 -144
WIRE -576 -112 -592 -112
WIRE -480 -112 -512 -112
WIRE -400 -112 -400 -224
WIRE -352 -112 -400 -112
WIRE 16 -112 -48 -112
WIRE -256 -96 -256 -224
WIRE -256 -96 -288 -96
WIRE -240 -96 -256 -96
WIRE -352 -80 -400 -80
WIRE -400 -48 -400 -80
WIRE -320 -48 -320 -64
WIRE 112 -32 112 -112
WIRE -592 32 -592 -112
WIRE -176 32 -592 32
WIRE -352 80 -384 80
WIRE -240 80 -272 80
WIRE 0 96 -16 96
WIRE 144 96 80 96
WIRE -336 160 -352 160
WIRE -320 160 -336 160
WIRE -320 176 -320 160
WIRE 48 176 32 176
WIRE 64 176 48 176
WIRE -592 192 -592 32
WIRE -576 192 -592 192
WIRE -464 192 -512 192
WIRE -384 192 -384 80
WIRE -352 192 -384 192
WIRE 64 192 64 176
WIRE -592 208 -592 192
WIRE -240 208 -240 80
WIRE -240 208 -288 208
WIRE -224 208 -240 208
WIRE -176 208 -176 32
WIRE -96 208 -112 208
WIRE -16 208 -16 96
WIRE 32 208 -16 208
WIRE -352 224 -384 224
WIRE 144 224 144 96
WIRE 144 224 96 224
WIRE 160 224 144 224
WIRE 32 240 -16 240
WIRE -384 256 -384 224
WIRE -320 256 -320 240
WIRE -16 256 -16 240
WIRE 64 272 64 256
WIRE -592 304 -592 288
FLAG 112 -32 0
FLAG 144 224 out
FLAG 48 176 vcc
FLAG 96 -208 vcc
FLAG -592 304 0
FLAG -240 208 out1
FLAG -336 160 vcc
FLAG 64 272 0
FLAG -320 256 0
FLAG 16 -32 0
FLAG -48 -112 VCC/2
FLAG -16 256 Vcc/2
FLAG -592 192 in
FLAG -256 -96 out2
FLAG -336 -144 vcc
FLAG -320 -48 0
FLAG -400 -48 Vcc/2
FLAG -384 256 VCC/2
SYMBOL voltage 112 -208 R0
WINDOW 123 0 0 Left 2
WINDOW 39 0 0 Left 2
WINDOW 0 26 50 Left 2
WINDOW 3 46 76 Left 2
SYMATTR InstName V2
SYMATTR Value 5
SYMBOL res 96 80 R90
WINDOW 0 0 56 VBottom 2
WINDOW 3 32 56 VTop 2
SYMATTR InstName R4
SYMATTR Value 10k
SYMBOL res -256 64 R90
WINDOW 0 0 56 VBottom 2
WINDOW 3 32 56 VTop 2
SYMATTR InstName R5
SYMATTR Value 10k
SYMBOL voltage -592 192 R0
WINDOW 123 0 0 Left 2
WINDOW 39 0 0 Left 2
WINDOW 3 1 99 Left 2
WINDOW 0 35 60 Left 2
SYMATTR Value SINE(0 0.5 1k)
SYMATTR InstName V3
SYMBOL Opamps\\LT1677 -320 144 R0
WINDOW 3 -36 152 Left 2
SYMATTR InstName U2
SYMBOL res 0 -208 R0
SYMATTR InstName R1
SYMATTR Value 10k
SYMBOL res 0 -128 R0
SYMATTR InstName R2
SYMATTR Value 10k
SYMBOL res 0 192 R90
WINDOW 0 0 56 VBottom 2
WINDOW 3 32 56 VTop 2
SYMATTR InstName R6
SYMATTR Value 2k
SYMBOL res -368 176 R90
WINDOW 0 0 56 VBottom 2
WINDOW 3 19 50 VTop 2
SYMATTR InstName R3
SYMATTR Value 2k
SYMBOL res -288 -240 R90
WINDOW 0 0 56 VBottom 2
WINDOW 3 32 56 VTop 2
SYMATTR InstName R7
SYMATTR Value 10k
SYMBOL res -384 -128 R90
WINDOW 0 0 56 VBottom 2
WINDOW 3 32 56 VTop 2
SYMATTR InstName R8
SYMATTR Value 2k
SYMBOL cap -512 176 R90
WINDOW 0 0 32 VBottom 2
WINDOW 3 32 32 VTop 2
SYMATTR InstName C1
SYMATTR Value 1µ
SYMBOL cap -512 -128 R90
WINDOW 0 0 32 VBottom 2
WINDOW 3 32 32 VTop 2
SYMATTR InstName C2
SYMATTR Value 1µ
SYMBOL cap -112 192 R90
WINDOW 0 0 32 VBottom 2
WINDOW 3 32 32 VTop 2
SYMATTR InstName C3
SYMATTR Value 1µ
SYMBOL addon\\Opamps\\OPAMP1_all -320 -160 R0
SYMATTR InstName U1
SYMATTR SpiceModel LM358/NS
SYMBOL addon\\Opamps\\OPAMP1_all 64 160 R0
SYMATTR InstName U3
SYMATTR SpiceModel XLM324
TEXT -232 360 Left 2 !.tran 10m
