Version 4
SHEET 1 880 680
WIRE -320 80 -432 80
WIRE -176 80 -240 80
WIRE 48 80 -64 80
WIRE 192 80 128 80
WIRE 384 128 336 128
WIRE 432 128 384 128
WIRE -272 160 -288 160
WIRE -256 160 -272 160
WIRE 96 160 80 160
WIRE 112 160 96 160
WIRE -256 176 -256 160
WIRE 112 176 112 160
WIRE -432 192 -432 80
WIRE -288 192 -432 192
WIRE -64 192 -64 80
WIRE 80 192 -64 192
WIRE -176 208 -176 80
WIRE -176 208 -224 208
WIRE -144 208 -176 208
WIRE 192 208 192 80
WIRE 192 208 144 208
WIRE 224 208 192 208
WIRE -336 224 -368 224
WIRE -288 224 -336 224
WIRE 48 224 32 224
WIRE 80 224 48 224
WIRE 336 224 336 208
WIRE 368 224 336 224
WIRE -368 240 -368 224
WIRE -272 272 -288 272
WIRE -256 272 -256 240
WIRE -256 272 -272 272
WIRE 96 272 80 272
WIRE 112 272 112 240
WIRE 112 272 96 272
WIRE -432 304 -432 272
WIRE -64 304 -64 272
WIRE 32 304 -64 304
WIRE 384 304 336 304
WIRE 32 320 32 304
FLAG 32 320 0
FLAG 368 224 0
FLAG 224 208 out
FLAG 96 160 vcc
FLAG 384 128 vcc
FLAG 384 304 vee
FLAG 96 272 vee
FLAG -368 320 0
FLAG -144 208 out1
FLAG -272 160 vcc
FLAG -272 272 vee
FLAG -432 304 0
FLAG -336 224 vin
FLAG 48 224 vin
SYMBOL OpAmp.Add\\OPAMP1_all 112 144 R0
WINDOW 38 12 118 Left 0
SYMATTR SpiceModel LM741/NS
SYMATTR InstName U1
SYMBOL res -80 176 R0
SYMATTR InstName R1
SYMATTR Value 1k
SYMBOL voltage 336 112 R0
WINDOW 123 0 0 Left 0
WINDOW 39 0 0 Left 0
WINDOW 0 32 44 Left 0
WINDOW 3 33 71 Left 0
SYMATTR InstName V2
SYMATTR Value 15
SYMBOL res 144 64 R90
WINDOW 0 0 56 VBottom 0
WINDOW 3 32 56 VTop 0
SYMATTR InstName R4
SYMATTR Value 9k
SYMBOL voltage 336 208 R0
WINDOW 123 0 0 Left 0
WINDOW 39 0 0 Left 0
WINDOW 0 32 46 Left 0
WINDOW 3 33 72 Left 0
SYMATTR InstName V1
SYMATTR Value 15
SYMBOL res -448 176 R0
WINDOW 0 -16 30 Left 0
WINDOW 3 -25 66 Left 0
SYMATTR InstName R3
SYMATTR Value 1k
SYMBOL res -224 64 R90
WINDOW 0 0 56 VBottom 0
WINDOW 3 32 56 VTop 0
SYMATTR InstName R5
SYMATTR Value 9k
SYMBOL voltage -368 224 R0
WINDOW 123 0 0 Left 0
WINDOW 39 0 0 Left 0
WINDOW 0 34 64 Left 0
WINDOW 3 24 88 Left 0
SYMATTR InstName V3
SYMATTR Value SINE(0 1 10k)
SYMBOL OpAmp.Add\\OPAMP1_all -256 144 R0
WINDOW 38 10 104 Left 0
SYMATTR SpiceModel LF411
SYMATTR InstName U2
TEXT -184 384 Left 0 !;dc temp 0 100 1
TEXT -184 360 Left 0 !.tran 1m
