Version 4
SHEET 1 1200 1172
WIRE 96 -128 32 -128
WIRE 224 -128 160 -128
WIRE 384 -96 384 -128
WIRE 560 -96 560 -128
WIRE -112 -16 -368 -16
WIRE 32 -16 32 -128
WIRE 32 -16 -32 -16
WIRE 96 -16 32 -16
WIRE 224 -16 224 -128
WIRE 224 -16 176 -16
WIRE -368 16 -368 -16
WIRE 384 16 384 -16
WIRE 560 16 560 -16
WIRE -368 112 -368 96
WIRE 128 176 128 144
WIRE 32 192 32 -16
WIRE 96 192 32 192
WIRE 224 208 224 -16
WIRE 224 208 160 208
WIRE 288 208 224 208
WIRE 96 224 32 224
WIRE 32 272 32 224
WIRE 128 272 128 240
WIRE 32 384 32 352
FLAG 384 16 0
FLAG -368 112 0
FLAG 288 208 out
IOPIN 288 208 Out
FLAG -368 -16 in
FLAG 128 144 V+
FLAG 384 -128 V+
FLAG 32 384 0
FLAG 560 16 0
FLAG 560 -128 V-
FLAG 128 272 V-
SYMBOL voltage 384 -112 R0
WINDOW 123 0 0 Left 2
WINDOW 39 0 0 Left 2
SYMATTR InstName V1
SYMATTR Value 12
SYMBOL res -16 -32 R90
WINDOW 0 0 56 VBottom 2
WINDOW 3 32 56 VTop 2
SYMATTR InstName R2
SYMATTR Value 10k
SYMBOL voltage -368 0 R0
WINDOW 3 -29 432 Left 2
WINDOW 123 0 0 Left 2
WINDOW 39 0 0 Left 2
SYMATTR Value PWL(0 0 200u 0 REPEAT FOREVER (.2u .1 250u .1 250.2u -0.1 500u -.1)  ENDREPEAT
SYMATTR InstName V3
SYMBOL cap 160 -144 R90
WINDOW 0 0 32 VBottom 2
WINDOW 3 32 32 VTop 2
SYMATTR InstName C1
SYMATTR Value 1p
SYMBOL res 192 -32 R90
WINDOW 0 0 56 VBottom 2
WINDOW 3 32 56 VTop 2
SYMATTR InstName R1
SYMATTR Value 500k
SYMBOL res 16 256 R0
SYMATTR InstName R3
SYMATTR Value 9k
SYMBOL voltage 560 -112 R0
WINDOW 123 0 0 Left 2
WINDOW 39 0 0 Left 2
SYMATTR InstName V2
SYMATTR Value -12
SYMBOL addon\\Opamps\\OPAMP1_all 128 144 R0
SYMATTR InstName U1
SYMATTR SpiceModel LM741/NS
TEXT -440 -272 Left 2 !.tran 0 10m 0 .5u
TEXT 256 128 Left 2 ;Universal Symbol \n"opamp2" used
TEXT -128 -464 Left 2 ;LM741 from National Semiconductor\n \nThe LM741 is used with the universal symbol "opamp2" \nfrom the standard LTSPICE [Opamps] menue. Simply\nplace this symbol "opamp2" on the schematic. Then replace\nthe text "opamp2" with  LM741/NS. Don't forget to \nset the model path with a Spiceline.\n.include  LM741.MOD\nKeep the model fle in the same directory where this schematic is saved.
TEXT -440 -304 Left 2 !.options plotwinsize=0
TEXT -440 -392 Left 2 ;.include LM741.MOD
LINE Normal -464 48 -416 48
LINE Normal -464 432 -464 48
LINE Normal -416 432 -464 432
