Version 4
SHEET 1 1204 680
WIRE 304 -32 144 -32
WIRE 320 -32 304 -32
WIRE 144 16 144 -32
WIRE 144 112 144 96
WIRE 304 128 304 -32
WIRE 144 208 144 192
WIRE 256 208 144 208
WIRE 144 256 144 208
WIRE 144 368 144 336
WIRE 304 368 304 224
WIRE 304 368 144 368
WIRE 320 368 304 368
WIRE 144 384 144 368
FLAG 144 384 0
FLAG 144 112 0
SYMBOL voltage 144 240 R0
SYMATTR InstName V1
SYMATTR Value 1
SYMBOL voltage 144 0 R0
SYMATTR InstName V2
SYMATTR Value 5
SYMBOL addon\\Transistors\\PMOS 256 128 R0
SYMATTR InstName U1
TEXT 120 -120 Left 2 !.dc V2 0 -5 -10m V1 0 -10 -1
