Version 4
SHEET 1 880 680
WIRE 96 -160 -64 -160
WIRE 144 -160 96 -160
WIRE 720 -160 672 -160
WIRE 784 -160 720 -160
WIRE -64 -128 -64 -160
WIRE 784 -96 784 -160
WIRE 144 48 144 -160
WIRE 192 48 144 48
WIRE 416 64 256 64
WIRE 48 80 -64 80
WIRE 96 80 48 80
WIRE 192 80 96 80
WIRE -64 112 -64 80
WIRE 96 128 96 80
WIRE 192 128 96 128
WIRE 416 144 256 144
WIRE 144 160 144 48
WIRE 192 160 144 160
WIRE 96 192 96 128
WIRE 192 192 96 192
WIRE 416 208 256 208
WIRE 144 224 144 160
WIRE 192 224 144 224
WIRE 608 224 480 224
WIRE 96 272 96 192
WIRE 192 272 96 272
WIRE 416 288 256 288
WIRE 144 304 144 224
WIRE 192 304 144 304
WIRE 608 304 480 304
FLAG -64 192 0
FLAG 48 80 inb
FLAG -64 -48 0
FLAG 96 -160 ina
FLAG 784 -16 0
FLAG 720 -160 GAIN
FLAG 416 240 GAIN
FLAG 416 320 GAIN
SYMBOL voltage -64 96 R0
WINDOW 123 0 0 Left 2
WINDOW 39 0 0 Left 2
SYMATTR InstName V1
SYMATTR Value SINE(0 3 1k)
SYMBOL addon\\math\\Math2 224 64 R0
SYMATTR SpiceModel x
SYMATTR InstName U1
SYMBOL voltage -64 -144 R0
WINDOW 123 0 0 Left 2
WINDOW 39 0 0 Left 2
SYMATTR InstName V2
SYMATTR Value SINE(2 1 100)
SYMBOL addon\\math\\Math2 224 144 R0
SYMATTR SpiceModel +
SYMATTR InstName U2
SYMBOL addon\\math\\Math2 224 208 R0
SYMATTR SpiceModel ~~
SYMATTR InstName U3
SYMBOL addon\\math\\Math2 224 288 R0
SYMATTR SpiceLine a=10  b=10 dc=0
SYMATTR InstName U4
SYMATTR SpiceModel inf_eq
SYMBOL addon\\math\\Math2 448 224 R0
SYMATTR SpiceModel x
SYMATTR InstName U5
SYMBOL voltage 784 -112 R0
WINDOW 123 0 0 Left 2
WINDOW 39 0 0 Left 2
SYMATTR InstName V3
SYMATTR Value 10
SYMBOL addon\\math\\Math2 448 304 R0
SYMATTR SpiceModel x
SYMATTR InstName U6
TEXT -96 296 Left 2 !.tran 0 20ms 0 100n
TEXT -872 -160 Left 2 ;*  function                       |  list name\n* -------------------------------+------------\n* a+b                           |               +\n* a-b                            |               -\n* a*b                            |               *\n* a*b                            |               *2 (faster solution)\n*  a/b                           |               /\n*  a==b                        |               ~~\n*  a<>b                        |               <>\n*  a<=b                        |            <=\n*  a<b                          |            <\n* atan2(a,b)                 |               atan2\n* hypot(a,b)                 |               hypot\n*   max(a,b)                 |               max\n*   min(a,b)                  |               min\n*   mod(a,b)                 |               mod\n*\n*\n* [PARAMETERS]\n*\n* a,b                           = control the signum of the inputs for atan2();\n* dc            [V]             = "DC" adjustment for atan2();\n* min           [V]             = minimum estimate value to avoid division by zero (a/b).
TEXT -184 -256 Left 2 ;file : sub\\addon\\mathfunct2.sub
