Version 4
SHEET 1 2808 1636
WIRE 192 -832 192 -864
WIRE 272 -832 192 -832
WIRE 368 -832 336 -832
WIRE 384 -832 368 -832
WIRE 784 -816 752 -816
WIRE 656 -752 624 -752
WIRE 672 -752 656 -752
WIRE 768 -752 736 -752
WIRE 784 -752 768 -752
WIRE 368 -736 368 -832
WIRE 192 -704 192 -832
WIRE 1072 -688 1008 -688
WIRE 1072 -656 1008 -656
WIRE 1072 -624 1008 -624
WIRE 1072 -592 1008 -592
WIRE 1072 -560 1008 -560
WIRE 192 -544 192 -624
WIRE 368 -544 368 -656
WIRE 368 -544 192 -544
WIRE 624 -544 624 -560
WIRE 1072 -528 1008 -528
WIRE 192 -512 192 -544
WIRE 1072 -496 1008 -496
WIRE 1072 -464 1008 -464
WIRE 1072 -432 1008 -432
WIRE 1072 -400 1008 -400
WIRE 1072 -368 1008 -368
WIRE 624 -352 624 -464
WIRE 1072 -336 1008 -336
WIRE 272 -224 144 -224
WIRE 464 -208 384 -208
WIRE 496 -208 464 -208
WIRE 272 -192 144 -192
WIRE 704 -192 608 -192
WIRE 464 -176 464 -208
WIRE 496 -176 464 -176
FLAG 624 -352 0
FLAG 624 -560 Vdd
IOPIN 624 -560 Out
FLAG 192 -512 0
FLAG 192 -864 VAC
IOPIN 192 -864 Out
FLAG 384 -832 VCLK
IOPIN 384 -832 Out
FLAG 624 -752 VCLK
IOPIN 624 -752 In
FLAG 1072 -688 Q1
FLAG 1072 -656 Q2
FLAG 1072 -624 Q3
FLAG 1072 -592 Q4
FLAG 1072 -560 Q5
FLAG 1072 -528 Q6
FLAG 1072 -496 Q7
FLAG 1072 -464 Q8
FLAG 1072 -432 Q9
FLAG 1072 -400 Q10
FLAG 1072 -368 Q11
FLAG 1072 -336 Q12
FLAG 752 -816 VReset
IOPIN 752 -816 In
FLAG 704 -192 VReset
IOPIN 704 -192 Out
FLAG 144 -224 Q3
IOPIN 144 -224 In
FLAG 144 -192 Q4
IOPIN 144 -192 In
FLAG 1152 -688 _Q0
FLAG 1152 -656 _Q1
FLAG 1152 -624 _Q2
FLAG 1152 -592 _Q3
FLAG 1152 -560 _Q4
FLAG 1152 -528 _Q5
FLAG 1152 -496 _Q6
FLAG 1152 -464 _Q7
FLAG 1152 -432 _Q8
FLAG 1152 -400 _Q9
SYMBOL voltage 624 -560 R0
WINDOW 123 0 0 Left 2
WINDOW 39 0 0 Left 2
WINDOW 3 27 96 Left 2
SYMATTR Value 5
SYMATTR InstName V2
SYMBOL voltage 192 -720 R0
WINDOW 123 0 0 Left 2
WINDOW 39 0 0 Left 2
SYMATTR InstName V1
SYMATTR Value SINE(0 5.8 60 0 0 0 3659)
SYMBOL diode 272 -816 R270
WINDOW 0 32 32 VTop 2
WINDOW 3 0 32 VBottom 2
SYMATTR InstName D5
SYMATTR Value 1N4148
SYMBOL res 352 -752 R0
SYMATTR InstName R1
SYMATTR Value 1K
SYMBOL addon\\Digital\\CD4xxx\\CD4040B 896 -880 R0
SYMATTR InstName U1
SYMATTR SpiceLine VDD=6  SPEED=1.0  TRIPDT=5e-9
SYMBOL addon\\Digital\\CD4xxx\\cd40106b 704 -800 R0
SYMATTR InstName U2
SYMBOL addon\\Digital\\CD4xxx\\CD4011B 320 -272 R0
SYMATTR InstName U3
SYMBOL addon\\Digital\\CD4xxx\\CD4011B 544 -256 R0
SYMATTR InstName U4
SYMBOL addon\\Digital\\dview10 1120 -544 R0
SYMATTR InstName U5
TEXT 72 32 Left 2 ;CD4040B used to divide 60 Hz Frequency to 10 Hz.\nSee Similar Example http://www.onsemi.com/pub/Collateral/MC14040B-D.PDF
TEXT 136 -464 Left 2 !.tran 1
TEXT 544 -688 Left 2 ;Schmitt Trigger Inverter
TEXT 312 -112 Left 2 ;NAND Gate
TEXT 544 -112 Left 2 ;NAND Gate
