Version 4
SHEET 1 880 680
WIRE 240 48 240 0
WIRE -224 96 -288 96
WIRE 64 96 -144 96
WIRE -288 128 -288 96
WIRE 64 128 -32 128
WIRE -32 160 -32 128
WIRE 480 176 400 176
WIRE -288 224 -288 208
WIRE 448 256 400 256
WIRE 448 272 448 256
WIRE -32 288 -32 240
WIRE 64 288 -32 288
WIRE -224 320 -288 320
WIRE 64 320 -144 320
WIRE -288 384 -288 320
WIRE 240 400 240 368
WIRE -288 480 -288 464
WIRE 0 496 0 480
WIRE 144 496 144 480
WIRE 0 608 0 576
WIRE 144 608 144 576
FLAG 0 608 0
FLAG 144 608 0
FLAG 480 176 out
FLAG -288 224 0
FLAG -288 480 0
FLAG 448 272 0
FLAG 240 0 VS+
FLAG 240 400 VS-
FLAG 0 480 VS+
FLAG 144 480 VS-
SYMBOL voltage 0 480 R0
SYMATTR InstName V1
SYMATTR Value 15
SYMBOL voltage 144 480 R0
SYMATTR InstName V2
SYMATTR Value -15
SYMBOL res -240 112 R270
WINDOW 0 32 56 VTop 0
WINDOW 3 0 56 VBottom 0
SYMATTR InstName R1
SYMATTR Value 100
SYMBOL res -240 336 R270
WINDOW 0 32 56 VTop 0
WINDOW 3 0 56 VBottom 0
SYMATTR InstName R2
SYMATTR Value 100
SYMBOL voltage -288 112 R0
SYMATTR InstName V3
SYMATTR Value -0.05
SYMBOL voltage -288 368 R0
WINDOW 123 0 0 Left 0
WINDOW 39 0 0 Left 0
SYMATTR InstName V4
SYMATTR Value 0.05
SYMBOL res -48 144 R0
SYMATTR InstName RG
SYMATTR Value 404
SYMBOL INA110E 32 208 R0
SYMATTR InstName U1
TEXT -280 -48 Left 0 !.OP
TEXT -280 0 Left 0 ;.OPTIONS Gmin=1e-11
TEXT -280 -192 Left 0 ;INA 110 Test Circuit\n \nV = 1+40000/RG
TEXT -280 -80 Left 0 ;.tran 20u
TEXT 24 -192 Left 0 ;The internal gain-resistor has to be\ncompletely externally defined for simulation.\nx10    4.44kOhm\nx100  404Ohm\nx200  201Ohm\nx500  80.2Ohm
LINE Normal 448 112 400 112
LINE Normal 448 176 448 112
