Version 4
SHEET 1 880 680
WIRE -96 64 -208 64
WIRE 112 64 -16 64
WIRE 144 64 112 64
WIRE 304 64 144 64
WIRE 416 64 368 64
WIRE 496 64 496 48
WIRE 144 144 144 64
WIRE 496 160 496 144
WIRE -208 256 -208 64
WIRE -48 256 -208 256
WIRE -32 256 -48 256
WIRE 112 256 80 256
WIRE 144 256 144 224
WIRE 144 256 112 256
WIRE 240 256 144 256
WIRE 416 256 416 64
WIRE 416 256 352 256
WIRE 512 256 416 256
WIRE -208 272 -208 256
WIRE -208 368 -208 352
WIRE -160 368 -208 368
WIRE -144 368 -160 368
WIRE -208 384 -208 368
WIRE -208 464 -208 448
FLAG 512 256 out
IOPIN 512 256 Out
FLAG 496 160 0
FLAG 496 48 vcc
FLAG -48 256 U1I
FLAG 112 256 U1O
FLAG 112 64 R1R2
FLAG -208 464 0
FLAG -160 368 R3C2
SYMBOL 74hc04 16 192 R0
SYMATTR InstName U1
SYMBOL 74hc04 288 192 R0
SYMATTR InstName U3
SYMBOL res 0 48 R90
WINDOW 0 0 56 VBottom 2
WINDOW 3 32 56 VTop 2
SYMATTR InstName R1
SYMATTR Value 100k
SYMBOL res 128 128 R0
SYMATTR InstName R2
SYMATTR Value 10k
SYMBOL cap 368 48 R90
WINDOW 0 0 32 VBottom 2
WINDOW 3 32 32 VTop 2
SYMATTR InstName C1
SYMATTR Value 1n
SYMBOL voltage 496 48 R0
SYMATTR InstName V1
SYMATTR Value 5
SYMBOL res -224 368 M180
WINDOW 0 36 76 Left 2
WINDOW 3 36 40 Left 2
SYMATTR InstName R3
SYMATTR Value 100k
SYMBOL cap -224 448 M180
WINDOW 0 24 56 Left 2
WINDOW 3 24 8 Left 2
SYMATTR InstName C2
SYMATTR Value 100p
TEXT -8 -112 Left 2 !.tran 0 100u 0
TEXT 216 -120 Left 2 ;.include 74hc.lib
TEXT 216 -96 Left 2 !.options plotwinsize=0
TEXT 216 -72 Left 2 !.ic V(U1I)=2.5
TEXT 16 -152 Left 2 ;'Dual 74HC04 Multivibrator W/Divider
