Version 4
SHEET 1 880 680
WIRE 496 -16 320 -16
WIRE 496 0 496 -16
WIRE 320 48 320 -16
WIRE -208 64 -336 64
WIRE -48 64 -208 64
WIRE -208 80 -208 64
WIRE -48 80 -48 64
WIRE 256 80 80 80
WIRE 496 96 496 80
WIRE -336 112 -336 64
WIRE 256 112 144 112
WIRE 144 128 144 112
WIRE 496 176 448 176
WIRE 608 176 496 176
WIRE -208 192 -208 160
WIRE 80 192 80 80
WIRE 80 192 -208 192
WIRE 496 208 496 176
WIRE -336 240 -336 192
WIRE 144 240 144 208
WIRE 256 240 144 240
WIRE -208 272 -208 192
WIRE -160 272 -208 272
WIRE -48 272 -48 160
WIRE -48 272 -80 272
WIRE 256 272 -48 272
WIRE 384 272 384 256
WIRE -208 320 -208 272
WIRE -48 320 -48 272
WIRE 320 336 320 304
WIRE 496 336 496 288
WIRE 384 384 384 352
WIRE -208 416 -208 400
WIRE -48 416 -48 400
FLAG 320 336 0
FLAG 496 96 0
FLAG 496 336 0
FLAG -336 240 0
FLAG 608 176 out
IOPIN 608 176 Out
FLAG 384 384 0
FLAG -208 416 0
FLAG -48 416 0
SYMBOL res 480 192 R0
SYMATTR InstName R1
SYMATTR Value 10k
SYMATTR SpiceLine tol=1 pwr=0.1
SYMBOL res 128 112 R0
SYMATTR InstName RG
SYMATTR Value {RG}
SYMATTR SpiceLine tol=1 pwr=0.1
SYMBOL voltage -336 96 R0
WINDOW 3 13 117 Left 2
WINDOW 123 31 81 Left 2
WINDOW 39 0 0 Left 2
SYMATTR Value 2.5
SYMATTR InstName V1
SYMBOL Misc\\EuropeanResistor -224 64 R0
SYMATTR InstName R3
SYMATTR Value 1k
SYMBOL Misc\\EuropeanResistor -64 64 R0
SYMATTR InstName R4
SYMATTR Value 1k
SYMBOL Misc\\EuropeanResistor -224 304 R0
SYMATTR InstName R5
SYMATTR Value 1k
SYMBOL Misc\\EuropeanResistor -64 304 R0
SYMATTR InstName R6
SYMATTR Value 1k
SYMBOL voltage 496 -16 R0
WINDOW 3 35 84 Left 2
WINDOW 123 31 81 Left 2
WINDOW 39 0 0 Left 2
SYMATTR Value 5
SYMATTR InstName V2
SYMBOL voltage 384 256 R0
WINDOW 3 35 84 Left 2
WINDOW 123 31 81 Left 2
WINDOW 39 0 0 Left 2
SYMATTR Value 2.5
SYMATTR InstName VR
SYMBOL voltage -176 272 R270
WINDOW 0 32 56 VTop 2
WINDOW 3 -169 76 VBottom 2
WINDOW 123 -38 58 VBottom 2
WINDOW 39 0 0 Left 2
SYMATTR InstName VD
SYMATTR Value PULSE(0 10m 0 .1u .1u 100u 200u)
SYMATTR Value2 AC 1
SYMBOL addon\\Opamps\\Instrumentation\\INA155 304 176 R0
SYMATTR InstName U1
TEXT -336 -96 Left 2 ;.tran 0 500u 0 10u
TEXT -336 -128 Left 2 ;.ac dec 100 1 1MEG
TEXT -144 -96 Left 2 ;.options plotwinsize=0
TEXT -336 0 Left 2 !.step param RG list 1m 1G
TEXT -336 -32 Left 2 !.op
TEXT -336 -64 Left 2 !.dc VD -10m 10m .1m
