Version 4
SHEET 1 2516 1640
WIRE 432 752 224 752
WIRE 592 752 512 752
WIRE 448 800 432 800
WIRE 848 848 800 848
WIRE 1312 848 1136 848
WIRE 224 864 224 752
WIRE 272 864 224 864
WIRE 352 864 352 800
WIRE 368 864 352 864
WIRE 1056 864 992 864
WIRE 1088 864 1056 864
WIRE 448 880 448 800
WIRE 448 880 432 880
WIRE 480 880 448 880
WIRE 592 880 592 752
WIRE 592 880 560 880
WIRE 800 880 800 848
WIRE 800 880 592 880
WIRE 368 896 352 896
WIRE 800 896 800 880
WIRE 848 896 800 896
WIRE 1088 912 1056 912
WIRE 224 944 224 864
WIRE 352 944 352 896
WIRE 1056 944 1056 912
WIRE 1136 944 1136 928
WIRE 512 992 512 928
WIRE 1360 992 1200 992
WIRE 2144 992 2080 992
WIRE 2080 1024 2080 992
WIRE 1312 1040 1312 848
WIRE 1360 1040 1360 992
WIRE 224 1056 224 1024
WIRE 464 1104 464 800
WIRE 512 1104 464 1104
WIRE 1264 1120 1248 1120
WIRE 1440 1120 1408 1120
WIRE 2080 1120 2080 1104
WIRE 464 1152 464 1104
WIRE 2144 1152 2144 992
WIRE 2144 1152 2112 1152
WIRE 2112 1200 2112 1152
WIRE 2080 1216 2048 1216
WIRE 2192 1232 2144 1232
WIRE 2224 1232 2192 1232
WIRE 1200 1248 1200 992
WIRE 1312 1248 1312 1216
WIRE 1312 1248 1200 1248
WIRE 1360 1248 1360 1200
WIRE 1472 1248 1360 1248
WIRE 1488 1248 1472 1248
WIRE 2000 1248 1824 1248
WIRE 2080 1248 2000 1248
WIRE 464 1264 464 1216
WIRE 464 1264 320 1264
WIRE 1664 1264 1632 1264
WIRE 1776 1264 1664 1264
WIRE 2112 1280 2112 1264
WIRE 800 1296 800 896
WIRE 1488 1296 800 1296
WIRE 1776 1312 1744 1312
WIRE 1744 1344 1744 1312
WIRE 1824 1344 1824 1328
WIRE 320 1360 320 1344
WIRE 0 1488 -32 1488
WIRE 32 1488 0 1488
WIRE 32 1584 32 1568
FLAG 224 864 in
FLAG 1056 944 0
FLAG 1136 944 0
FLAG 224 1056 0
FLAG 800 848 ve
FLAG 1056 864 u
FLAG 32 1584 0
FLAG 352 944 0
FLAG 320 1360 0
FLAG 464 1264 bin
FLAG 464 1152 bin
FLAG 0 1488 bin1
FLAG 1248 1120 0
FLAG 1440 1120 0
FLAG 1744 1344 0
FLAG 1824 1344 0
FLAG 1472 1248 x
FLAG 1664 1264 y
FLAG 2000 1248 z
FLAG 2112 1280 0
FLAG 2080 1120 0
FLAG 2048 1216 0
FLAG 2192 1232 out
SYMBOL E 1136 832 R0
WINDOW 0 30 42 Left 0
WINDOW 3 -97 -7 Left 0
SYMATTR InstName E2
SYMATTR Value Laplace=(2*z*s/w0/(1+2*z*s/w0+(s/w0)**2))**2
SYMBOL voltage 224 928 R0
WINDOW 123 0 0 Left 0
WINDOW 39 0 0 Left 0
WINDOW 3 10 98 Left 0
SYMATTR Value SINE(0 5 100k 2u 0 0 0)
SYMATTR InstName V1
SYMBOL SpecialFunctions\\mul 976 1088 R0
SYMATTR InstName U1
SYMBOL sw_all 416 752 R270
SYMATTR InstName U3
SYMBOL sw_all 464 880 R270
SYMATTR InstName U4
SYMBOL Opamps\\opamp 400 816 R0
SYMATTR InstName U5
SYMBOL res 368 848 R90
WINDOW 0 0 56 VBottom 0
WINDOW 3 32 56 VTop 0
SYMATTR InstName R1
SYMATTR Value 10k
SYMBOL res 448 784 R90
WINDOW 0 0 56 VBottom 0
WINDOW 3 32 56 VTop 0
SYMATTR InstName R2
SYMATTR Value 10k
SYMBOL voltage 32 1472 R0
WINDOW 123 0 0 Left 0
WINDOW 39 0 0 Left 0
SYMATTR InstName V3
SYMATTR Value PWL(repeat forever(file=data.txt)endrepeat)
SYMBOL Dig_Add\\74XX\\HC&U\\74hc04 448 1056 R270
SYMATTR InstName U6
SYMBOL bv 320 1248 R0
SYMATTR InstName B1
SYMATTR Value V=5*(rand(time*DEBIT)>0.5)
SYMBOL Digital\\dflop 1408 1120 R90
SYMATTR InstName A1
SYMBOL SpecialFunctions\\mul 1616 1488 R0
SYMATTR InstName U2
SYMBOL E 1824 1232 R0
WINDOW 0 30 42 Left 0
WINDOW 3 -115 -7 Left 0
SYMATTR InstName E1
SYMATTR Value Laplace=1/(1+(s/w1)**4)
SYMBOL Opamps\\1pole 2112 1232 R0
SYMATTR InstName U7
SYMBOL voltage 2080 1008 R0
WINDOW 123 0 0 Left 0
WINDOW 39 0 0 Left 0
SYMATTR InstName V2
SYMATTR Value 5
TEXT 288 1160 Left 0 !.tran 20m
TEXT 1088 704 Left 0 ;passe-bande 4eme ordre
TEXT 1040 760 Left 0 !.param w0=2*pi*200K\n.param z=0.2
TEXT 1688 1112 Left 0 ;passe-bas quatrième ordre
TEXT 1712 1184 Left 0 !.param w1=2*pi*30K
TEXT 296 656 Left 0 ;BPSK fc=100kHz
TEXT 768 760 Left 0 ;multiplication FREQx2
TEXT 1376 1008 Left 0 ;Division FREQ/2
TEXT 616 592 Left 0 ;CANAL DE TRANSMISSION
TEXT 304 1416 Left 0 ;rythme en bit/s
TEXT 336 1384 Left 0 !.param Debit=50k
RECTANGLE Normal 1280 944 1008 736
RECTANGLE Normal 1968 1344 1696 1136
RECTANGLE Normal 608 1200 144 672
RECTANGLE Normal 736 1312 672 624
