Version 4
SHEET 1 880 680
WIRE -112 0 -176 0
WIRE -176 32 -176 0
WIRE -368 48 -432 48
WIRE 336 48 192 48
WIRE 432 48 336 48
WIRE -176 64 -176 32
WIRE -208 80 -224 80
WIRE -112 96 -112 80
WIRE -112 96 -144 96
WIRE -48 96 -48 80
WIRE -48 96 -112 96
WIRE 224 96 192 96
WIRE 320 96 304 96
WIRE 336 96 320 96
WIRE 384 96 336 96
WIRE -208 112 -224 112
WIRE -224 128 -224 112
WIRE -48 128 -48 96
WIRE -48 128 -64 128
WIRE -32 128 -48 128
WIRE -16 128 -32 128
WIRE -432 144 -432 128
WIRE -32 176 -64 176
WIRE -16 176 -32 176
WIRE -64 224 -64 176
WIRE 208 224 -64 224
WIRE 208 288 208 224
WIRE 208 288 192 288
WIRE 240 288 208 288
WIRE 416 352 192 352
WIRE 432 352 416 352
WIRE 528 352 496 352
WIRE 544 352 528 352
WIRE -32 384 -80 384
WIRE -16 384 -32 384
WIRE -80 480 -80 384
WIRE 384 480 384 96
WIRE 384 480 -80 480
FLAG 240 288 vco_out
IOPIN 240 288 Out
FLAG 432 128 0
FLAG -432 144 0
FLAG 336 240 0
FLAG -64 128 in
FLAG 320 96 vco_in
FLAG -32 384 vco_in
FLAG 336 48 Vcc
FLAG -224 128 0
FLAG -176 128 0
FLAG -176 32 Vcc
FLAG 528 416 0
FLAG 528 352 out
SYMBOL voltage 432 32 R0
WINDOW 123 0 0 Left 0
WINDOW 39 0 0 Left 0
WINDOW 3 -43 39 Left 0
SYMATTR Value 5
SYMATTR InstName V1
SYMBOL voltage -432 32 R0
WINDOW 123 0 0 Left 0
WINDOW 39 0 0 Left 0
WINDOW 3 -56 156 Left 0
SYMATTR InstName V2
SYMATTR Value PULSE(0 5 0 1n 1n 20u 40u)
SYMBOL cap 320 176 R0
SYMATTR InstName C2
SYMATTR Value 100n
SYMBOL Dig_Add\\TTL\\HC&U\\74hc4046b 80 0 R0
SYMATTR InstName U1
SYMATTR SpiceLine fmin=10K
SYMATTR SpiceLine2 fmax=400k
SYMBOL SpecialFunctions\\modulate -368 48 R0
WINDOW 3 -1 109 Left 0
SYMATTR InstName A1
SYMATTR Value mark=100K space=50K
SYMBOL Comparators\\comp5_all -176 32 R0
SYMATTR InstName U2
SYMATTR SpiceModel LM139
SYMBOL res -128 -16 R0
SYMATTR InstName R1
SYMATTR Value 1k
SYMBOL res 512 336 R90
WINDOW 0 0 56 VBottom 0
WINDOW 3 32 56 VTop 0
SYMATTR InstName R4
SYMATTR Value 2k
SYMBOL cap 512 352 R0
SYMATTR InstName C1
SYMATTR Value 2n
SYMBOL res 320 80 R90
WINDOW 0 0 56 VBottom 0
WINDOW 3 32 56 VTop 0
SYMATTR InstName R2
SYMATTR Value 100
SYMBOL res 320 80 R0
SYMATTR InstName R3
SYMATTR Value 10k
TEXT -184 440 Left 0 !.tran 1m
