Version 4
SHEET 1 1316 1088
WIRE 512 -144 480 -144
WIRE 592 -144 576 -144
WIRE 752 -144 592 -144
WIRE 512 -112 480 -112
WIRE 592 -112 576 -112
WIRE 752 -112 592 -112
WIRE 144 -96 -208 -96
WIRE 512 -80 480 -80
WIRE 592 -80 560 -80
WIRE 768 -80 592 -80
WIRE 512 -48 464 -48
WIRE 592 -48 576 -48
WIRE 752 -48 592 -48
WIRE -880 -16 -880 -64
WIRE -368 -16 -464 -16
WIRE -208 -16 -208 -96
WIRE -208 -16 -256 -16
WIRE -112 -16 -208 -16
WIRE 176 -16 176 -64
WIRE 512 -16 480 -16
WIRE 592 -16 576 -16
WIRE 752 -16 592 -16
WIRE -112 16 -144 16
WIRE -880 32 -880 -16
WIRE -592 32 -720 32
WIRE -1152 48 -1248 48
WIRE -1120 48 -1152 48
WIRE -912 48 -944 48
WIRE -464 48 -464 -16
WIRE -464 48 -480 48
WIRE -144 48 -256 48
WIRE -112 48 -144 48
WIRE -800 64 -800 48
WIRE -800 64 -848 64
WIRE -720 64 -720 32
WIRE -720 64 -800 64
WIRE -592 64 -608 64
WIRE -912 80 -976 80
WIRE -144 80 -144 48
WIRE -112 80 -144 80
WIRE 144 80 144 -96
WIRE 176 80 144 80
WIRE -256 96 -256 48
WIRE -880 112 -880 96
WIRE -464 112 -464 48
WIRE -432 112 -464 112
WIRE -304 112 -336 112
WIRE -144 112 -160 112
WIRE -112 112 -144 112
WIRE -432 160 -464 160
WIRE -304 176 -304 160
WIRE 608 176 608 128
WIRE -608 192 -720 192
WIRE -464 208 -464 160
WIRE -464 208 -496 208
WIRE -256 208 -256 176
WIRE 160 208 112 208
WIRE 176 208 160 208
WIRE 512 208 400 208
WIRE -848 224 -864 224
WIRE -784 224 -848 224
WIRE -720 224 -720 192
WIRE -720 224 -784 224
WIRE 160 240 112 240
WIRE 176 240 160 240
WIRE 512 240 400 240
WIRE 160 272 112 272
WIRE 176 272 160 272
WIRE 512 272 400 272
WIRE 160 304 112 304
WIRE 176 304 160 304
WIRE 512 304 400 304
WIRE -160 320 -160 112
WIRE 720 320 688 320
WIRE 736 320 720 320
WIRE 496 336 480 336
WIRE 512 336 496 336
WIRE -160 368 -160 320
WIRE 496 368 496 336
WIRE 512 368 496 368
WIRE 496 400 496 368
WIRE 512 400 496 400
WIRE 496 432 496 400
WIRE 512 432 496 432
WIRE 608 480 608 464
WIRE 80 496 80 448
WIRE 80 560 80 496
WIRE 144 576 112 576
WIRE -784 592 -784 224
WIRE 0 592 -784 592
WIRE 48 592 0 592
WIRE 0 608 0 592
WIRE 192 608 112 608
WIRE 304 608 192 608
WIRE 720 640 720 320
WIRE 720 640 448 640
FLAG -1248 128 0
FLAG -304 176 0
FLAG -256 208 0
FLAG -256 48 PD
FLAG -464 208 R
FLAG 752 -144 SIGin
FLAG 752 -112 COMPin
FLAG 768 -80 S
FLAG 752 -48 R
FLAG 752 -16 PD
FLAG 480 -144 SIGin_
FLAG 480 -112 COMPin_
FLAG 480 -80 S_
FLAG 464 -48 R_
FLAG 480 -16 PD_
FLAG -160 448 0
FLAG -160 320 clk
FLAG -144 112 clk
FLAG 160 208 Q0_
FLAG 160 240 Q1_
FLAG 160 272 Q2_
FLAG 160 304 Q3_
FLAG -1152 384 0
FLAG -144 16 Vcc
FLAG -1152 304 Vcc
FLAG -464 -16 S
FLAG -208 -96 _S
FLAG 176 -64 Vcc
FLAG 176 16 0
FLAG 480 336 0
FLAG 608 128 Vcc
FLAG 608 480 0
FLAG 736 320 N
FLAG 192 608 V2
FLAG -880 112 0
FLAG -944 48 0
FLAG -800 48 SIGin
FLAG -880 -16 Vcc
FLAG 80 624 0
FLAG 144 576 0
FLAG 0 592 COMPin
FLAG 80 496 Vcc
FLAG -848 224 COMPin
FLAG -1152 48 in
SYMBOL voltage -1248 32 R0
WINDOW 3 -52 -87 Left 0
WINDOW 123 0 0 Left 0
WINDOW 39 0 0 Left 0
SYMATTR Value PULSE(0 1 0 1n 1n 800u 1.6m)
SYMATTR InstName V1
SYMBOL Dig_Add\\74XX\\HC&U\\74hc04 -672 0 R0
SYMATTR InstName U2
SYMBOL Dig_Add\\74XX\\HC&U\\74hc08 -544 -16 R0
SYMATTR InstName U1
SYMBOL Dig_Add\\74XX\\HC&U\\74hc04 -672 160 R0
SYMATTR InstName U3
SYMBOL Dig_Add\\74XX\\HC&U\\74hc08 -560 144 R0
SYMATTR InstName U4
SYMBOL Digital\\srflop -384 64 R0
SYMATTR InstName A1
SYMBOL e -256 80 R0
SYMATTR InstName E1
SYMATTR Value 5
SYMBOL Dig_Add\\dview5 576 -160 R180
SYMATTR InstName U5
SYMBOL voltage -160 352 R0
WINDOW 3 -208 137 Left 0
WINDOW 123 0 0 Left 0
WINDOW 39 0 0 Left 0
SYMATTR Value PULSE(0 5 0 1n 1n 0.5u 1u)
SYMATTR InstName V3
SYMBOL voltage -1152 288 R0
WINDOW 123 0 0 Left 0
WINDOW 39 0 0 Left 0
SYMATTR InstName V4
SYMATTR Value 5
SYMBOL Dig_Add\\74XX\\HC&U\\74hc04 -320 -80 R0
WINDOW 3 -47 3 Left 0
SYMATTR InstName U7
SYMBOL Dig_Add\\74XX\\HC&U\\74hc195 288 -96 R0
SYMATTR InstName U8
SYMBOL Dig_Add\\74XX\\HC&U\\74hc161.i 0 -96 R0
SYMATTR InstName U9
SYMBOL DAC\\DAC8 640 352 R0
SYMATTR InstName U6
SYMBOL SpecialFunctions\\modulate 448 640 R180
WINDOW 3 -7 117 Left 0
SYMATTR Value mark=25k space=18K
SYMATTR InstName A2
SYMBOL SpecialFunctions\\modulate -1120 48 R0
WINDOW 3 -42 120 Left 0
SYMATTR Value mark=20k space=18.4K
SYMATTR InstName A3
SYMBOL Opamps\\1pole -880 64 R0
SYMATTR InstName U10
SYMATTR Value2 Avol=1Meg GBW=10Meg Slew=100Meg
SYMBOL Opamps\\1pole 80 592 M0
SYMATTR InstName U11
SYMATTR Value2 Avol=1Meg GBW=10Meg Slew=100Meg
TEXT -1296 472 Left 0 !.tran 4m
TEXT -808 -184 Left 0 ;valeur N fonction de la différence de phase phiSIGin-phiCOMPin.
TEXT -752 -56 Left 0 ;detecteur front haut
TEXT -744 320 Left 0 ;detecteur front haut
TEXT -808 -144 Left 0 ;PLL numérique plage de capture 18k-20kHz
TEXT -416 424 Left 0 ;CLOCK  F=1MHz
TEXT -1136 504 Left 0 ;N=0 si dPHI=0\nN=5/15V si dPHI=tPD/T*2*PI\nPD est compris entre 0 et 15us.
TEXT 256 -208 Left 0 ;Pour la visualisation des 5 signaux sur un seul tracé .
RECTANGLE Normal -512 128 -752 -32
RECTANGLE Normal -512 304 -752 144
