Version 4
SHEET 1 880 944
WIRE -880 -288 -912 -288
WIRE -800 -272 -816 -272
WIRE -1264 -256 -1264 -272
WIRE -1136 -256 -1264 -256
WIRE -880 -256 -928 -256
WIRE -64 -256 -704 -256
WIRE -960 -224 -992 -224
WIRE -928 -224 -928 -256
WIRE -928 -224 -960 -224
WIRE -704 -224 -704 -256
WIRE -704 -112 -704 -144
WIRE -1248 -96 -1248 -224
WIRE -1248 16 -1248 -16
WIRE 288 16 224 16
WIRE 336 16 288 16
WIRE -64 96 -64 -256
WIRE 0 96 -64 96
WIRE 272 96 224 96
WIRE -944 144 -944 128
WIRE 0 144 -496 144
WIRE 272 144 272 96
WIRE 384 144 272 144
WIRE 480 144 384 144
WIRE -944 160 -944 144
WIRE -928 160 -944 160
WIRE 384 160 384 144
WIRE -944 192 -944 160
WIRE -928 192 -944 192
WIRE -32 192 -192 192
WIRE -944 224 -944 192
WIRE -928 224 -944 224
WIRE -32 224 -32 192
WIRE 0 224 -32 224
WIRE 480 240 480 224
WIRE 576 240 480 240
WIRE 640 240 576 240
WIRE -944 256 -944 224
WIRE -928 256 -944 256
WIRE 0 256 -192 256
WIRE 272 256 224 256
WIRE 480 256 480 240
WIRE -928 288 -1072 288
WIRE -96 288 -128 288
WIRE 0 288 -16 288
WIRE 0 320 -112 320
WIRE -192 336 -192 320
WIRE 0 352 -112 352
WIRE -704 384 -720 384
WIRE 480 384 480 320
WIRE -112 464 -112 352
WIRE -112 464 -176 464
WIRE -608 480 -704 480
WIRE -496 480 -496 144
WIRE -496 480 -608 480
FLAG -128 288 0
FLAG -192 336 0
FLAG 272 256 VCOout
IOPIN 272 256 Out
FLAG 336 96 0
FLAG 224 400 0
FLAG -1248 -224 in
FLAG -1248 16 0
FLAG -64 96 SIGin
FLAG 288 16 VCC
FLAG 480 384 0
FLAG 576 240 VCOin
FLAG -176 464 VCOin
FLAG 384 240 0
FLAG 272 144 PC2
FLAG -944 144 VCC
FLAG -1072 288 VCOout
FLAG -608 480 COMPin
FLAG -1264 -272 in
FLAG -960 -224 in1V
FLAG -704 -112 0
FLAG -912 -288 0
FLAG -800 -272 dig1V
SYMBOL CD4046B 112 -32 R0
SYMATTR InstName U1
SYMBOL cap -176 256 R180
WINDOW 0 22 45 Left 2
WINDOW 3 23 15 Left 2
SYMATTR InstName C1
SYMATTR Value 150p
SYMBOL res 0 272 R90
WINDOW 0 0 56 VBottom 2
WINDOW 3 32 56 VTop 2
SYMATTR InstName R1
SYMATTR Value 22k
SYMBOL res -96 304 R90
WINDOW 0 0 56 VBottom 2
WINDOW 3 32 56 VTop 2
SYMATTR InstName R2
SYMATTR Value 47k
SYMBOL voltage 336 0 R0
WINDOW 123 0 0 Left 2
WINDOW 39 0 0 Left 2
SYMATTR InstName V1
SYMATTR Value 5
SYMBOL voltage -1248 -112 R0
WINDOW 123 0 0 Left 2
WINDOW 39 0 0 Left 2
WINDOW 3 30 90 Left 2
SYMATTR Value PULSE(0 1 0 1n 1n 3m 6m)
SYMATTR InstName V3
SYMBOL res 464 128 R0
SYMATTR InstName R3
SYMATTR Value 15k
SYMBOL cap 464 256 R0
SYMATTR InstName C2
SYMATTR Value 10n
SYMBOL res 368 144 R0
SYMATTR InstName R4
SYMATTR Value 50k
SYMBOL 74hc163.i -816 80 R0
SYMATTR InstName U3
SYMBOL SPECIALFUNCTIONS\\MODULATE -1136 -256 R0
WINDOW 0 37 -55 Left 2
WINDOW 3 75 107 Center 2
SYMATTR InstName A2
SYMATTR Value mark=5k space=3K
SYMBOL bv -704 -240 R0
WINDOW 3 35 49 Left 2
SYMATTR InstName B1
SYMATTR Value V=5*V(dig1V)
SYMBOL addon\\math\\Math2 -848 -272 R0
SYMATTR SpiceModel inf
SYMATTR InstName U4
TEXT 16 568 Left 2 ;fmin=25k fmax=140k
TEXT 24 -168 Left 2 !.tran 5m
