Version 4
SHEET 1 880 680
WIRE -416 -288 -64 -320
WIRE -1264 -272 -1264 -400
WIRE -416 -256 -416 -288
WIRE -1264 -160 -1264 -192
WIRE -416 -144 -416 -176
WIRE -672 -80 -688 -80
WIRE -640 -80 -672 -80
WIRE -688 -48 -688 -80
WIRE -640 -48 -688 -48
WIRE -688 -16 -688 -48
WIRE -640 -16 -688 -16
WIRE -1056 0 -1088 0
WIRE -976 16 -992 16
WIRE -688 16 -688 -16
WIRE -640 16 -688 16
WIRE 464 16 160 16
WIRE -1440 32 -1440 16
WIRE -1312 32 -1440 32
WIRE -1056 32 -1104 32
WIRE -640 48 -736 48
WIRE 464 48 464 16
WIRE -1136 64 -1168 64
WIRE -1104 64 -1104 32
WIRE -1104 64 -1136 64
WIRE 224 64 160 64
WIRE 336 64 304 64
WIRE -64 96 -64 -320
WIRE 336 96 336 64
WIRE 400 96 336 96
WIRE -64 144 -416 144
WIRE -96 208 -112 208
WIRE -96 224 -96 208
WIRE -64 224 -96 224
WIRE 224 256 160 256
WIRE -64 272 -64 256
WIRE -64 272 -112 272
WIRE -64 288 -112 288
WIRE -224 320 -240 320
WIRE -64 320 -144 320
WIRE -64 352 -128 352
WIRE 176 400 160 400
WIRE 176 432 176 400
WIRE -128 528 -128 352
WIRE 400 528 400 96
WIRE 400 528 -128 528
WIRE 448 528 400 528
FLAG -240 320 0
FLAG -192 288 0
FLAG 224 256 vco_out
IOPIN 224 256 Out
FLAG 464 128 0
FLAG 336 240 0
FLAG 336 64 vco_in
FLAG 464 16 Vcc
FLAG -672 -80 Vcc
FLAG -736 48 vco_out
IOPIN -736 48 Out
FLAG 176 432 0
FLAG -1264 -400 in
FLAG -1264 -160 0
FLAG -416 -288 SIGin
FLAG -1440 16 in
FLAG -1136 64 in1V
FLAG -416 -144 0
FLAG -1088 0 0
FLAG -976 16 dig1V
SYMBOL CD4046B 48 -32 R0
SYMATTR InstName U1
SYMBOL cap -96 272 R180
WINDOW 0 22 45 Left 2
WINDOW 3 20 21 Left 2
SYMATTR InstName C1
SYMATTR Value 100p
SYMBOL res -128 304 R90
WINDOW 0 0 56 VBottom 2
WINDOW 3 32 56 VTop 2
SYMATTR InstName R1
SYMATTR Value 100k
SYMBOL res -96 272 R90
WINDOW 0 0 56 VBottom 2
WINDOW 3 32 56 VTop 2
SYMATTR InstName R2
SYMATTR Value 15k
SYMBOL voltage 464 32 R0
WINDOW 123 0 0 Left 2
WINDOW 39 0 0 Left 2
WINDOW 3 -43 39 Left 2
SYMATTR Value 5
SYMATTR InstName V1
SYMBOL res 320 48 R90
WINDOW 0 0 56 VBottom 2
WINDOW 3 32 56 VTop 2
SYMATTR InstName R3
SYMATTR Value 100
SYMBOL cap 320 176 R0
SYMATTR InstName C2
SYMATTR Value 100n
SYMBOL res 320 80 R0
SYMATTR InstName R4
SYMATTR Value 10k
SYMBOL 74hc163.i -528 -160 R0
SYMATTR InstName U2
SYMBOL voltage -1264 -288 R0
WINDOW 123 0 0 Left 2
WINDOW 39 0 0 Left 2
WINDOW 3 30 90 Left 2
SYMATTR Value PULSE(0 1 0 1n 1n  0.1m 0.2m)
SYMATTR InstName V2
SYMBOL SPECIALFUNCTIONS\\MODULATE -1312 32 R0
WINDOW 0 37 -55 Left 2
WINDOW 3 75 107 Center 2
SYMATTR InstName A2
SYMATTR Value mark=150k space=50K
SYMBOL bv -416 -272 R0
WINDOW 3 35 49 Left 2
SYMATTR InstName B1
SYMATTR Value V=5*V(dig1V)
SYMBOL addon\\math\\Math2 -1024 16 R0
SYMATTR SpiceModel inf
SYMATTR InstName U4
TEXT -896 -208 Left 2 !.tran 0.3m
