Version 4
SHEET 1 880 704
WIRE 288 16 224 16
WIRE 336 16 288 16
WIRE 224 48 224 16
WIRE 224 48 176 48
WIRE -688 96 -720 96
WIRE -608 112 -624 112
WIRE -1072 128 -1072 112
WIRE -944 128 -1072 128
WIRE -688 128 -736 128
WIRE -192 128 -512 128
WIRE -48 128 -192 128
WIRE 272 128 272 96
WIRE 272 128 176 128
WIRE 272 144 272 128
WIRE 288 144 272 144
WIRE 384 144 368 144
WIRE 480 144 384 144
WIRE -768 160 -800 160
WIRE -736 160 -736 128
WIRE -736 160 -768 160
WIRE -512 160 -512 128
WIRE 384 160 384 144
WIRE -48 176 -112 176
WIRE -112 224 -112 176
WIRE 240 224 -112 224
WIRE -1072 240 -1072 128
WIRE -144 240 -160 240
WIRE 480 240 480 208
WIRE 480 240 384 240
WIRE 576 240 480 240
WIRE 640 240 576 240
WIRE -144 256 -144 240
WIRE -48 256 -144 256
WIRE 480 256 480 240
WIRE -512 272 -512 240
WIRE -48 288 -112 288
WIRE 240 288 240 224
WIRE 240 288 176 288
WIRE 272 288 240 288
WIRE -112 304 -112 288
WIRE -112 304 -160 304
WIRE -48 320 -112 320
WIRE -1072 352 -1072 320
WIRE -208 352 -240 352
WIRE -112 352 -112 320
WIRE -112 352 -128 352
WIRE -48 352 -96 352
WIRE 304 352 176 352
WIRE 480 352 480 320
WIRE -48 384 -80 384
WIRE -96 400 -96 352
WIRE -96 400 -224 400
WIRE 224 432 176 432
WIRE -80 448 -80 384
WIRE -80 448 -224 448
WIRE -48 448 -48 416
WIRE 224 496 224 432
WIRE -224 560 -224 448
WIRE -224 560 -288 560
FLAG -240 352 0
FLAG -304 400 0
FLAG 272 288 vco_out
IOPIN 272 288 Out
FLAG 336 96 0
FLAG 224 496 0
FLAG -1072 112 in
FLAG -1072 352 0
FLAG 288 16 5V
FLAG 480 352 0
FLAG 576 240 VCOin
FLAG -288 560 VCOin
FLAG 304 432 0
FLAG -48 528 0
FLAG -768 160 in1V
FLAG -512 272 0
FLAG -720 96 0
FLAG -608 112 dig1V
FLAG -192 128 Sig_IN
SYMBOL cap -144 304 R180
WINDOW 0 22 45 Left 2
WINDOW 3 20 21 Left 2
SYMATTR InstName C1
SYMATTR Value 5.5n
SYMBOL res -112 336 R90
WINDOW 0 0 56 VBottom 2
WINDOW 3 32 56 VTop 2
SYMATTR InstName R1
SYMATTR Value 10k
SYMBOL res -208 384 R90
WINDOW 0 0 56 VBottom 2
WINDOW 3 32 56 VTop 2
SYMATTR InstName R2
SYMATTR Value 100k
SYMBOL voltage 336 0 R0
WINDOW 123 0 0 Left 2
WINDOW 39 0 0 Left 2
SYMATTR InstName V1
SYMATTR Value 5
SYMBOL SPECIALFUNCTIONS\\MODULATE -944 128 R0
WINDOW 0 37 -55 Left 2
WINDOW 3 75 107 Center 2
SYMATTR InstName A1
SYMATTR Value mark=150k space=50K
SYMBOL voltage -1072 224 R0
WINDOW 123 0 0 Left 2
WINDOW 39 0 0 Left 2
WINDOW 3 30 90 Left 2
SYMATTR Value PULSE(0 1 0 1n 1n 8m 16m)
SYMATTR InstName V3
SYMBOL cap 464 256 R0
SYMATTR InstName C2
SYMATTR Value 10n
SYMBOL res 368 144 R0
SYMATTR InstName R4
SYMATTR Value 36k
SYMBOL res 384 128 R90
WINDOW 0 0 56 VBottom 2
WINDOW 3 32 56 VTop 2
SYMATTR InstName R5
SYMATTR Value 130k
SYMBOL cap 464 144 R0
SYMATTR InstName C3
SYMATTR Value 1.5n
SYMBOL res 288 336 R0
SYMATTR InstName R3
SYMATTR Value 100k
SYMBOL addon\\Digital\\74HC\\74hc4046a 64 0 R0
SYMATTR InstName U2
SYMBOL res -64 432 R0
SYMATTR InstName R6
SYMATTR Value 1
SYMBOL bv -512 144 R0
WINDOW 3 35 49 Left 2
SYMATTR InstName B1
SYMATTR Value V=5*V(dig1V)
SYMBOL addon\\math\\Math2 -656 112 R0
SYMATTR SpiceModel inf
SYMATTR InstName U1
TEXT 16 568 Left 2 ;fmin=25k fmax=140k
TEXT -624 408 Left 2 !.tran 20m startup uic
