Version 4
SHEET 1 980 704
WIRE 544 160 432 160
WIRE 752 160 624 160
WIRE 848 256 800 256
WIRE 848 272 848 256
WIRE 432 304 432 160
WIRE 464 304 432 304
WIRE 752 304 752 160
WIRE 752 304 720 304
WIRE 464 368 320 368
WIRE 800 368 800 256
WIRE 800 368 720 368
WIRE 848 368 848 352
WIRE 320 384 320 368
WIRE -112 432 -192 432
WIRE 464 432 -32 432
WIRE 944 432 720 432
WIRE 976 432 944 432
WIRE -192 448 -192 432
WIRE 464 496 320 496
WIRE 800 496 720 496
WIRE -192 544 -192 528
WIRE 800 544 800 496
WIRE 320 560 320 496
WIRE 320 656 320 640
FLAG 848 368 0
FLAG 320 656 0
FLAG -192 544 0
FLAG 944 432 out
FLAG 800 544 0
FLAG 320 384 0
SYMBOL VOLTAGE -192 432 R0
WINDOW 39 0 0 Left 2
WINDOW 123 24 136 Left 2
SYMATTR Value2 AC 1
SYMATTR InstName V1
SYMATTR Value PULSE(-0.5 0.5 10u 1n 1n 10u 20u)
SYMBOL voltage 848 256 R0
SYMATTR InstName V2
SYMATTR Value 15V
SYMBOL voltage 320 544 R0
SYMATTR InstName V3
SYMATTR Value -15V
SYMBOL RES 528 176 R270
WINDOW 0 32 56 VTop 2
WINDOW 3 0 56 VBottom 2
SYMATTR InstName Rg
SYMATTR Value 5.555k
SYMBOL res -128 448 R270
WINDOW 0 32 56 VTop 2
WINDOW 3 0 56 VBottom 2
SYMATTR InstName R3
SYMATTR Value 1k
SYMBOL addon\\Opamps\\Instrumentation\\INA111 592 400 R0
SYMATTR InstName U1
TEXT -120 88 Left 2 !.tran 50u
TEXT 496 88 Left 2 ;V=  1 + 50kOhm / Rg
TEXT -112 120 Left 2 !.op
TEXT -120 0 Left 2 ;Opamp hangs at -13.4V for 3us if Rg<8.13k at the beginning of simulation.\nI have no explanation for that wrong operating point solution at startup.
