Version 4
SHEET 1 1044 692
WIRE -128 96 -192 96
WIRE -64 96 -128 96
WIRE 336 96 32 96
WIRE 544 96 336 96
WIRE -192 320 -192 96
WIRE -128 320 -192 320
WIRE -16 320 -16 160
WIRE -16 320 -48 320
WIRE 32 320 -16 320
WIRE 96 320 32 320
WIRE 320 320 256 320
WIRE 416 320 320 320
WIRE 544 320 544 96
WIRE 544 320 416 320
WIRE 624 320 544 320
WIRE 704 320 624 320
WIRE 800 320 704 320
WIRE 320 352 320 320
WIRE 416 368 416 320
WIRE 176 400 176 384
WIRE 544 416 544 320
WIRE 704 416 704 320
WIRE -192 448 -192 320
WIRE 176 464 176 400
WIRE 240 464 176 464
WIRE 320 464 320 432
WIRE 320 464 240 464
WIRE 416 464 416 432
WIRE 416 464 320 464
WIRE 176 512 176 464
WIRE -192 640 -192 528
WIRE 176 640 176 592
WIRE 176 640 -192 640
WIRE 544 640 544 480
WIRE 544 640 176 640
WIRE 704 640 704 496
WIRE 704 640 544 640
WIRE 176 672 176 640
FLAG 800 320 out
IOPIN 800 320 Out
FLAG 176 672 0
DATAFLAG 624 320 ""
DATAFLAG 336 96 ""
DATAFLAG 32 320 ""
DATAFLAG 240 464 ""
DATAFLAG -128 96 ""
SYMBOL res 304 336 R0
SYMATTR InstName R1
SYMATTR Value 270
SYMBOL res 160 496 R0
SYMATTR InstName R2
SYMATTR Value 2.2k
SYMBOL cap 528 416 R0
SYMATTR InstName C1
SYMATTR Value 10µ
SYMBOL voltage -192 432 R0
SYMATTR InstName V1
SYMATTR Value 18
SYMBOL pnp 32 160 M270
WINDOW 0 70 69 VLeft 2
WINDOW 3 38 -10 VLeft 2
SYMATTR InstName Q1
SYMATTR Value TIP2955
SYMBOL res -144 336 R270
WINDOW 0 32 56 VTop 2
WINDOW 3 0 56 VBottom 2
SYMATTR InstName R3
SYMATTR Value 47
SYMBOL res 688 400 R0
SYMATTR InstName R5
SYMATTR Value 5
SYMBOL diode 400 432 M180
WINDOW 0 24 64 Left 2
WINDOW 3 24 0 Left 2
SYMATTR InstName D1
SYMATTR Value 1N4148
SYMBOL addon\\References\\lm317 176 336 R0
SYMATTR InstName U2
TEXT -192 -48 Left 2 ;.include LM317.lib
TEXT -192 -8 Left 2 !.op
TEXT -192 -88 Left 2 ;.inc TIP2955.lib
