Version 4
SHEET 1 880 680
WIRE 80 176 -176 176
WIRE 352 176 240 176
WIRE 480 176 352 176
WIRE 544 176 480 176
WIRE 352 224 352 176
WIRE 480 288 480 176
WIRE -176 320 -176 176
WIRE 160 336 160 256
WIRE 352 336 352 304
WIRE 352 336 160 336
WIRE 160 384 160 336
WIRE -176 512 -176 400
WIRE 160 512 160 464
WIRE 160 512 -176 512
WIRE 480 512 480 352
WIRE 480 512 160 512
WIRE 160 544 160 512
FLAG 544 176 out
IOPIN 544 176 Out
FLAG 160 544 0
FLAG 160 336 ref
SYMBOL res 336 208 R0
SYMATTR InstName R1
SYMATTR Value 270
SYMBOL res 144 368 R0
SYMATTR InstName R2
SYMATTR Value 2.2k
SYMBOL cap 464 288 R0
SYMATTR InstName C1
SYMATTR Value 10µ
SYMBOL voltage -176 304 R0
WINDOW 123 0 0 Left 2
WINDOW 39 0 0 Left 2
SYMATTR InstName V1
SYMATTR Value 22V
SYMBOL addon\\References\\lm317 160 192 R0
SYMATTR InstName U2
TEXT 48 40 Left 2 ;.include LM317.lib
TEXT -168 72 Left 2 !.dc V1 0 22 1
TEXT 312 80 Left 2 ;LM317TI
TEXT 312 48 Left 2 ;LM317MOT
TEXT 312 112 Left 2 ;LM317MOT2
LINE Normal 199 122 304 80
LINE Normal 235 142 231 154
LINE Normal 211 108 195 124
LINE Normal 217 121 195 123
