Version 4
SHEET 1 880 892
WIRE -400 304 -496 304
WIRE -96 304 -288 304
WIRE 112 304 -96 304
WIRE 256 304 224 304
WIRE -496 336 -496 304
WIRE -96 336 -96 304
WIRE 160 400 160 352
WIRE 288 400 160 400
WIRE -352 416 -352 352
WIRE -496 432 -496 416
WIRE -256 480 -304 480
WIRE -96 480 -96 432
WIRE -96 480 -144 480
WIRE -48 480 -96 480
WIRE 128 480 64 480
WIRE 288 480 288 400
WIRE 288 480 240 480
WIRE -96 528 -96 480
WIRE -352 656 -352 528
WIRE -256 656 -352 656
WIRE -96 656 -96 624
WIRE -96 656 -144 656
WIRE 176 656 176 528
WIRE 176 656 -96 656
FLAG -496 432 0
FLAG 256 304 vout
FLAG -496 304 vin
SYMBOL voltage -496 320 R0
WINDOW 123 24 118 Left 0
WINDOW 39 0 0 Left 0
SYMATTR Value2 AC 1
SYMATTR InstName V1
SYMATTR Value ""
SYMBOL SpecialFunctions\\sommateur -320 304 R0
SYMATTR InstName U2
SYMBOL SpecialFunctions\\sommateur -352 448 R270
SYMATTR InstName U5
SYMBOL SpecialFunctions\\GAIN1 -224 480 R180
SYMATTR InstName U6
SYMBOL SpecialFunctions\\GAIN2 32 480 R0
SYMATTR InstName U7
SYMBOL SpecialFunctions\\delay -96 592 R90
SYMATTR InstName U8
SYMBOL SpecialFunctions\\sommateur 192 304 R0
SYMATTR InstName U1
SYMBOL SpecialFunctions\\delay -96 400 R90
SYMATTR InstName U3
SYMBOL SpecialFunctions\\GAIN3 -224 656 R180
SYMATTR InstName U9
SYMBOL SpecialFunctions\\sommateur 208 480 R0
SYMATTR InstName U4
TEXT -664 592 Left 0 !.param K1=1.899\n.param K2=-1.999\n.param K3=-0.9\n.param fs=11025
TEXT -690 816 Left 0 !.ac dec 100 10 100k
TEXT -744 688 Left 0 ;http://www.elektrorevue.cz/clanky/06026/english.htm
TEXT -720 712 Left 0 ;filtre réjecteur 50 Hz
