Version 4
SHEET 1 1136 680
WIRE 416 144 0 144
WIRE 912 144 848 144
WIRE 944 144 912 144
WIRE 0 160 0 144
WIRE 1040 192 960 192
WIRE 912 224 848 224
WIRE 960 224 960 192
WIRE 960 224 912 224
WIRE 912 288 848 288
WIRE 944 288 912 288
FLAG 0 240 0
FLAG 912 144 out
FLAG 912 224 order
FLAG 912 288 choice
FLAG 1040 272 0
FLAG 944 368 0
SYMBOL voltage 0 144 R0
WINDOW 123 107 127 Left 2
WINDOW 39 0 0 Left 2
SYMATTR Value2 AC 1
SYMATTR InstName V1
SYMATTR Value PULSE(0 1 0 0 0 10ms 20ms)
SYMBOL res 1024 176 R0
SYMATTR InstName R1
SYMATTR Value 1000k
SYMBOL res 928 272 R0
SYMATTR InstName R2
SYMATTR Value 1000k
SYMBOL addon\\filters\\Filter_HighPass 720 144 R0
SYMATTR SpiceModel Chebyshev
SYMATTR SpiceLine2 G=1 Asc=10 Ap=1 As=40 N=20
SYMATTR InstName U1
TEXT -32 264 Left 2 !;tran 100ms
TEXT 72 208 Left 2 !.ac dec 1000 480 1500
TEXT 56 -72 Left 2 ;Butterworth, Tchebitcheff : N=0 ou AS=0
