Version 4
SHEET 1 928 680
WIRE -992 32 -1168 32
WIRE -912 32 -992 32
WIRE -688 32 -912 32
WIRE -992 48 -992 32
WIRE -912 48 -912 32
WIRE -1168 64 -1168 32
WIRE -688 80 -688 32
WIRE -784 112 -864 112
WIRE -784 144 -864 144
WIRE -1168 160 -1168 144
WIRE -784 176 -864 176
WIRE -1072 208 -1216 208
WIRE -1024 208 -1072 208
WIRE -784 208 -864 208
WIRE 400 208 400 192
WIRE 400 208 304 208
WIRE -592 224 -608 224
WIRE -272 224 -336 224
WIRE -128 224 -128 208
WIRE -128 224 -272 224
WIRE -784 240 -864 240
WIRE -1024 272 -1152 272
WIRE -784 272 -864 272
WIRE -1216 304 -1216 288
WIRE -784 304 -864 304
WIRE -1152 320 -1152 272
WIRE -784 336 -864 336
WIRE -944 400 -944 384
WIRE -688 400 -688 368
WIRE -688 400 -944 400
WIRE -1152 416 -1152 400
WIRE -944 416 -944 400
FLAG -1216 304 0
FLAG 400 192 out
FLAG -944 416 0
FLAG -1152 416 0
FLAG -1168 160 0
FLAG -592 304 0
FLAG -1072 208 in1
FLAG -272 224 in1
SYMBOL voltage -1216 192 R0
WINDOW 123 -118 96 Left 2
WINDOW 39 0 0 Left 2
WINDOW 3 -181 57 Left 2
SYMATTR Value2 AC 1
SYMATTR Value SINE(2.5 2.5 5k)
SYMATTR InstName V1
SYMBOL FIR 128 176 R0
WINDOW 123 -14 -154 Center 2
WINDOW 39 -68 -124 Center 2
SYMATTR InstName U2
SYMATTR Value2 a0=-0.04437797081117766 a1=0.15720630359016846 a2=0.27284587128791044 a3=0.3312958857431024 a4=0.27284587128791044
SYMATTR SpiceLine a5=0.15720630359016846 a6=-0.04437797081117766 a7=0 a8=0 a9=0
SYMBOL ADC8 -928 256 R0
SYMATTR InstName U1
SYMBOL DAC8 -656 256 R0
SYMATTR InstName U3
SYMBOL voltage -1152 304 R0
WINDOW 123 0 0 Left 2
WINDOW 39 0 0 Left 2
WINDOW 3 -72 95 Left 2
SYMATTR Value PULSE(0 5 0 0 0 50u 100u)
SYMATTR InstName V2
SYMBOL voltage -1168 48 R0
WINDOW 123 0 0 Left 2
WINDOW 39 0 0 Left 2
WINDOW 0 38 43 Left 2
WINDOW 3 34 71 Left 2
SYMATTR InstName V4
SYMATTR Value 5V
SYMBOL res -608 208 R0
SYMATTR InstName R1
SYMATTR Value 10Meg
TEXT -176 504 Left 2 !;tran 4m
TEXT -176 472 Left 2 !.ac dec 1000 10 10k
