Version 4
SHEET 1 880 680
WIRE 128 -32 -48 -32
WIRE 128 -16 128 -32
WIRE -128 0 -128 -32
WIRE -48 0 -48 -32
WIRE -592 16 -592 0
WIRE -592 32 -592 16
WIRE -272 96 -432 96
WIRE -176 96 -272 96
WIRE 128 96 128 48
WIRE 128 96 0 96
WIRE 144 96 128 96
WIRE 224 96 144 96
WIRE -592 128 -592 112
WIRE 128 128 128 96
WIRE 304 128 304 96
WIRE -176 160 -272 160
WIRE -576 208 -576 192
WIRE -736 224 -736 208
WIRE -576 224 -576 208
WIRE -432 224 -432 96
WIRE -384 224 -432 224
WIRE -176 224 -272 224
WIRE 112 224 0 224
WIRE 208 224 176 224
WIRE 464 224 384 224
WIRE -736 240 -736 224
WIRE 208 256 208 224
WIRE -736 320 -736 304
WIRE -576 320 -576 304
WIRE -432 336 -432 224
WIRE -112 368 -112 336
WIRE 112 368 112 224
WIRE 192 368 112 368
WIRE 208 368 208 320
WIRE 208 368 192 368
WIRE 304 368 304 256
WIRE 304 368 208 368
WIRE 208 400 208 368
WIRE -432 432 -432 416
FLAG -576 320 0
FLAG -432 432 0
FLAG -592 128 0
FLAG -576 208 VCC1
FLAG -592 16 VCC2
FLAG -128 -32 VCC1
FLAG -48 -32 VCC2
FLAG 144 96 out1
FLAG 192 368 out2
FLAG -272 96 in
FLAG -112 368 0
FLAG 464 224 vit
FLAG 128 192 0
FLAG -272 160 VCC1
FLAG 208 464 0
FLAG 208 224 VCC2
FLAG -272 224 DIR
FLAG -736 320 0
FLAG -736 208 dir
SYMBOL Misc\\l293 32 128 R0
SYMATTR InstName U1
SYMBOL voltage -432 320 R0
WINDOW 123 0 0 Left 0
WINDOW 39 0 0 Left 0
SYMATTR InstName V1
SYMATTR Value PULSE(0 5 0 1n 1n 60u 100u 100)
SYMBOL voltage -576 208 R0
WINDOW 123 0 0 Left 0
WINDOW 39 0 0 Left 0
SYMATTR InstName V2
SYMATTR Value 5
SYMBOL voltage -592 16 R0
WINDOW 123 0 0 Left 0
WINDOW 39 0 0 Left 0
SYMATTR InstName V3
SYMATTR Value 12
SYMBOL moteurs\\mcc 304 192 R0
SYMATTR InstName U2
SYMBOL schottky 144 48 R180
WINDOW 0 24 72 Left 0
WINDOW 3 24 0 Left 0
SYMATTR InstName D1
SYMATTR Value 1N5817
SYMATTR Description Diode
SYMATTR Type diode
SYMBOL schottky 144 192 R180
WINDOW 0 24 72 Left 0
WINDOW 3 24 0 Left 0
SYMATTR InstName D2
SYMATTR Value 1N5817
SYMATTR Description Diode
SYMATTR Type diode
SYMBOL voltage 208 96 R270
WINDOW 0 32 56 VTop 0
WINDOW 3 -32 56 VBottom 0
WINDOW 123 0 0 Left 0
WINDOW 39 0 0 Left 0
SYMATTR InstName V4
SYMATTR Value 0
SYMBOL schottky 224 320 R180
WINDOW 0 32 43 Left 0
WINDOW 3 24 0 Left 0
SYMATTR InstName D3
SYMATTR Value 1N5817
SYMATTR Description Diode
SYMATTR Type diode
SYMBOL schottky 224 464 R180
WINDOW 0 24 72 Left 0
WINDOW 3 24 0 Left 0
SYMATTR InstName D4
SYMATTR Value 1N5817
SYMATTR Description Diode
SYMATTR Type diode
SYMBOL voltage -736 208 R0
WINDOW 123 0 0 Left 0
WINDOW 39 0 0 Left 0
SYMATTR InstName V5
SYMATTR Value PULSE(0 5 0 1n 1n 100m 200m)
TEXT -408 480 Left 0 !.tran 300m
TEXT 360 296 Left 0 !.IC V(out2)=0
