Version 4
SHEET 1 1004 680
WIRE 384 -112 128 -112
WIRE 720 -112 384 -112
WIRE 800 -112 720 -112
WIRE 128 -96 128 -112
WIRE 384 -48 384 -112
WIRE 336 -32 256 -32
WIRE 128 16 128 -16
WIRE 256 16 256 -32
WIRE 256 16 128 16
WIRE 80 96 -32 96
WIRE 384 96 384 48
WIRE 560 96 384 96
WIRE -32 112 -32 96
WIRE 560 128 560 96
WIRE -32 144 -32 112
WIRE 384 144 384 96
WIRE 800 192 800 -112
WIRE 256 224 256 16
WIRE 336 224 256 224
WIRE 672 224 640 224
WIRE -32 240 -32 224
WIRE 384 256 384 240
WIRE 672 256 672 224
WIRE 560 288 560 256
FLAG -32 240 0
FLAG -32 112 in
FLAG 672 256 out1
FLAG 800 272 0
FLAG 384 256 0
FLAG 720 -112 VCC
FLAG 128 112 0
FLAG 560 288 0
SYMBOL voltage -32 128 R0
WINDOW 123 14 161 Left 0
WINDOW 39 0 0 Left 0
WINDOW 3 21 130 Left 0
WINDOW 0 32 59 Left 0
SYMATTR Value2 AC 1
SYMATTR Value PULSE(-1 12 0 1n 1n 50u 100u 1000)
SYMATTR InstName V1
SYMBOL voltage 800 176 R0
WINDOW 123 0 0 Left 0
WINDOW 39 0 0 Left 0
SYMATTR InstName V2
SYMATTR Value 12
SYMBOL nmos 336 144 R0
SYMATTR InstName M1
SYMATTR Value AO6408
SYMBOL moteurs\\mcc 560 192 R0
SYMATTR SpiceModel mcc_12V_2.5A
SYMATTR InstName U2
SYMBOL pmos 336 48 M180
SYMATTR InstName M2
SYMATTR Value FDS4465
SYMBOL nmos 80 16 R0
SYMATTR InstName M3
SYMATTR Value BSS123
SYMBOL res 112 -112 R0
SYMATTR InstName R1
SYMATTR Value 1k
TEXT 624 392 Left 0 !.tran 200m
TEXT 624 424 Left 0 !;ac dec 100 1 10000
