Version 4
SHEET 1 4564 1120
WIRE -576 -368 -608 -368
WIRE -480 -368 -496 -368
WIRE -272 -288 -272 -320
WIRE -272 -288 -288 -288
WIRE -384 -256 -416 -256
WIRE -224 -256 -288 -256
WIRE -384 -224 -432 -224
WIRE -224 -224 -288 -224
WIRE -432 -208 -432 -224
WIRE -432 -208 -448 -208
WIRE -432 -192 -432 -208
WIRE -384 -192 -432 -192
WIRE -16 -192 -288 -192
WIRE 96 -192 64 -192
WIRE 144 -192 96 -192
WIRE 208 -192 144 -192
WIRE 288 -192 208 -192
WIRE -688 -176 -688 -192
WIRE 96 -176 96 -192
WIRE 144 -176 144 -192
WIRE -16 -160 -288 -160
WIRE -480 -128 -496 -128
WIRE -384 -128 -416 -128
WIRE -112 -128 -288 -128
WIRE -496 -96 -496 -128
WIRE -384 -96 -496 -96
WIRE -208 -96 -288 -96
WIRE 144 -96 144 -112
WIRE 144 -96 96 -96
WIRE 144 -80 144 -96
WIRE -688 -64 -688 -96
WIRE -240 -64 -288 -64
WIRE -208 -64 -208 -96
WIRE -112 -64 -112 -128
WIRE -16 -64 -16 -160
WIRE 144 0 144 -16
WIRE -208 32 -208 16
WIRE -112 32 -112 16
WIRE -16 32 -16 16
WIRE -240 80 -240 -64
WIRE 208 80 208 -192
WIRE 208 80 -240 80
FLAG -688 -64 0
FLAG -688 -192 VCC
FLAG 144 0 0
FLAG -608 -368 0
FLAG -480 -368 REF
FLAG -416 -256 2
FLAG -224 -256 15
FLAG -208 32 0
FLAG -112 32 0
FLAG -16 32 0
FLAG -224 -224 REF
FLAG -272 -320 VCC
FLAG -448 -208 VCO_OUT
FLAG 288 -192 Phase_LOC_CONTROL
SYMBOL voltage -688 -192 M0
WINDOW 123 0 0 Left 0
WINDOW 39 0 0 Left 0
WINDOW 3 61 106 Left 0
SYMATTR Value 5
SYMATTR InstName V2
SYMBOL res 80 -208 R90
WINDOW 0 0 56 VBottom 0
WINDOW 3 32 56 VTop 0
SYMATTR InstName R4
SYMATTR Value 110k
SYMBOL res 112 -192 M0
SYMATTR InstName R5
SYMATTR Value 15k
SYMBOL cap 128 -176 R0
SYMATTR InstName C3
SYMATTR Value 1n
SYMBOL cap 128 -80 R0
SYMATTR InstName C4
SYMATTR Value 10n
SYMBOL voltage -480 -368 M270
WINDOW 123 0 0 Left 0
WINDOW 39 0 0 Left 0
WINDOW 3 48 47 VRight 0
SYMATTR Value PULSE(0 5 0 10n 10n 5u 10u)
SYMATTR InstName V1
SYMBOL 4046 -336 -160 R0
SYMATTR InstName X1
SYMBOL cap -416 -144 R90
WINDOW 0 0 32 VBottom 0
WINDOW 3 32 32 VTop 0
SYMATTR InstName C1
SYMATTR Value 2.2n
SYMBOL res -128 32 M180
WINDOW 0 36 76 Left 0
WINDOW 3 36 40 Left 0
SYMATTR InstName R1
SYMATTR Value 10k
SYMBOL res -32 32 M180
WINDOW 0 36 76 Left 0
WINDOW 3 36 40 Left 0
SYMATTR InstName R2
SYMATTR Value 100k
SYMBOL res -224 32 M180
WINDOW 0 36 76 Left 0
WINDOW 3 36 40 Left 0
SYMATTR InstName R9
SYMATTR Value 100k
TEXT -416 64 Left 0 !.tran 10000u
