Version 4
SHEET 1 1304 916
WIRE 496 112 464 112
WIRE 752 112 720 112
WIRE 464 160 464 112
WIRE 720 160 720 112
WIRE 256 208 256 192
WIRE 256 208 80 208
WIRE 368 208 256 208
WIRE 384 208 368 208
WIRE 544 208 512 208
WIRE 624 208 544 208
WIRE 896 208 768 208
WIRE 1088 208 960 208
WIRE 1168 208 1088 208
WIRE 544 240 544 208
WIRE 1088 256 1088 208
WIRE 720 272 720 240
WIRE 464 288 464 240
WIRE 80 320 80 288
WIRE 544 320 544 304
WIRE 1088 336 1088 320
WIRE 688 352 688 240
WIRE 1088 368 1088 336
WIRE 432 400 432 240
WIRE 432 400 416 400
WIRE 464 400 432 400
WIRE 512 400 464 400
WIRE 688 400 688 352
WIRE 688 400 624 400
WIRE 416 464 416 400
WIRE 96 480 32 480
WIRE 416 560 416 544
FLAG 416 560 0
FLAG 80 320 0
FLAG 464 400 CTR
FLAG 544 320 0
FLAG 1168 208 VOUT
IOPIN 1168 208 Out
FLAG 256 192 vin
FLAG 96 560 0
FLAG 32 480 5
FLAG 496 112 5
FLAG 464 288 0
FLAG 720 272 0
FLAG 752 112 5
FLAG 1088 368 0
FLAG 688 352 ~CTR
SYMBOL voltage 416 448 R0
WINDOW 123 0 0 Left 0
WINDOW 39 0 0 Left 0
WINDOW 3 27 77 Left 0
SYMATTR Value PULSE(0 5 0 1n 1n 50u 100u)
SYMATTR InstName V1
SYMBOL voltage 80 192 R0
WINDOW 123 24 132 Left 0
WINDOW 39 0 0 Left 0
WINDOW 3 9 102 Left 0
SYMATTR Value2 AC 1
SYMATTR Value SINE(2.5 2.5 1k)
SYMATTR InstName V2
SYMBOL cap 528 240 R0
SYMATTR InstName C1
SYMATTR Value 10n
SYMBOL voltage 96 464 R0
WINDOW 123 0 0 Left 0
WINDOW 39 0 0 Left 0
SYMATTR InstName V3
SYMATTR Value 5
SYMBOL Dig_Add\\TTL\\HC&U\\74hc04 560 336 R0
SYMATTR InstName U3
SYMBOL Dig_Add\\TTL\\HC&U\\74HC4066 448 176 R0
SYMATTR InstName U1
SYMBOL Dig_Add\\TTL\\HC&U\\74HC4066 704 176 R0
SYMATTR InstName U2
SYMBOL res 1072 240 R0
SYMATTR InstName R2
SYMATTR Value 100
SYMBOL cap 960 192 R90
WINDOW 0 0 32 VBottom 0
WINDOW 3 32 32 VTop 0
SYMATTR InstName C2
SYMATTR Value 10n
TEXT -32 360 Left 0 !.tran 10ms
TEXT -32 392 Left 0 !;.step param freq LIST 3k 10k 30k
TEXT -32 424 Left 0 !;ac dec 1000 1 1Meg
RECTANGLE Normal 800 592 320 48
