Version 4
SHEET 1 880 788
WIRE 368 -160 112 -160
WIRE 496 -160 368 -160
WIRE 592 -160 496 -160
WIRE 592 -112 592 -160
WIRE 592 -16 592 -32
WIRE 592 -16 144 -16
WIRE 112 0 112 -160
WIRE 192 80 192 48
WIRE -224 96 -240 96
WIRE -192 96 -224 96
WIRE 144 96 144 -16
WIRE 160 96 144 96
WIRE 528 112 528 32
WIRE 528 112 224 112
WIRE 112 128 112 80
WIRE 160 128 112 128
WIRE 592 128 592 80
WIRE 720 128 592 128
WIRE 112 144 112 128
WIRE 368 144 288 144
WIRE -240 160 -240 96
WIRE 592 176 592 128
WIRE 720 176 720 128
WIRE 592 304 592 256
WIRE 720 304 720 240
WIRE 720 304 592 304
WIRE 592 336 592 304
FLAG 368 144 out
IOPIN 368 144 Out
FLAG -240 240 0
FLAG -224 96 12V
FLAG 192 48 12V
FLAG 192 144 0
FLAG 368 -80 0
FLAG 496 -160 2V5
FLAG 112 224 0
FLAG 592 336 0
SYMBOL PT100 608 272 R180
WINDOW 3 44 -5 Left 2
WINDOW 38 44 -26 Left 2
SYMATTR InstName U1
SYMATTR Value ""
SYMBOL voltage -240 144 R0
WINDOW 123 0 0 Left 2
WINDOW 39 0 0 Left 2
SYMATTR InstName V2
SYMATTR Value 12
SYMBOL res 128 96 R180
WINDOW 0 36 76 Left 2
WINDOW 3 36 40 Left 2
SYMATTR InstName R1
SYMATTR Value 1.24k
SYMBOL cap 736 240 R180
WINDOW 0 24 56 Left 2
WINDOW 3 24 8 Left 2
SYMATTR InstName C1
SYMATTR Value 10n
SYMBOL res 96 128 R0
SYMATTR InstName R2
SYMATTR Value 1.24k
SYMBOL Opamps\\opamp2 192 48 R0
SYMATTR InstName U2
SYMATTR Value LM358/NS
SYMBOL voltage 368 -176 R0
WINDOW 123 0 0 Left 2
WINDOW 39 0 0 Left 2
SYMATTR InstName V1
SYMATTR Value 2.5V
SYMBOL pnp 528 80 M180
SYMATTR InstName Q1
SYMATTR Value 2N2907
SYMBOL res 576 -128 R0
SYMATTR InstName R3
SYMATTR Value 1.24k
TEXT -120 432 Left 2 !.step param sensT list 0 5 10 15 20 25 30 35 40 45 50
TEXT -120 456 Left 2 !.op
TEXT -120 400 Left 2 !.lib PT100.sub
TEXT -272 -88 Left 2 !.include LM358.MOD
