Version 4
SHEET 1 880 680
WIRE 64 144 0 144
WIRE 176 144 256 112
WIRE 224 144 256 112
WIRE 0 160 0 144
FLAG 0 240 0
SYMBOL addon\\filters\\Filter 128 144 R0
SYMATTR InstName U1
SYMATTR SpiceModel Butterworth
SYMATTR SpiceLine2 G=1 Asc=3 Ap=1 As=40 N=10
SYMATTR Value ""
SYMATTR Value2 ""
SYMATTR SpiceLine fp1=500 fs1=3000
SYMBOL voltage 0 144 R0
WINDOW 123 24 124 Left 2
WINDOW 39 0 0 Left 2
SYMATTR Value2 AC 1
SYMATTR InstName V1
SYMATTR Value PULSE(0 1 0 0 0 10ms 20ms)
TEXT -32 264 Left 2 !;tran 100ms
TEXT -34 288 Left 2 !.ac dec 100 100 4k
