Version 4
SHEET 1 1136 680
WIRE 384 144 0 144
WIRE 416 144 384 144
WIRE 912 144 848 144
WIRE 944 144 912 144
WIRE 0 160 0 144
WIRE 1040 208 960 208
WIRE 912 240 848 240
WIRE 960 240 960 208
WIRE 960 240 912 240
WIRE 912 304 848 304
WIRE 944 304 912 304
FLAG 0 240 0
FLAG 912 144 out
FLAG 912 240 order
FLAG 912 304 choice
FLAG 1040 288 0
FLAG 944 384 0
SYMBOL voltage 0 144 R0
WINDOW 123 107 127 Left 2
WINDOW 39 0 0 Left 2
SYMATTR Value2 AC 1
SYMATTR InstName V1
SYMATTR Value PULSE(0 1 0 0 0 10ms 20ms)
SYMBOL res 1024 192 R0
SYMATTR InstName R1
SYMATTR Value 1000k
SYMBOL res 928 288 R0
SYMATTR InstName R2
SYMATTR Value 1000k
SYMBOL addon\\filters\\Filter_BandStop 800 192 R0
SYMATTR SpiceModel Chebyshev_IIR
SYMATTR SpiceLine f0=3k fp1=400 fs1=500 fs2=600 fp2=750
SYMATTR InstName U1
TEXT -32 264 Left 2 !.tran 100ms
TEXT 72 208 Left 2 !;ac dec 1000 400 700
TEXT 56 -72 Left 2 ;Butterworth, Tchebitcheff : N=0 ou AS=0\nBessel : N<>0 et AS<>0
