Version 4
SHEET 1 908 1252
WIRE -240 -208 -256 -208
WIRE 320 -208 208 -208
WIRE -256 144 -256 -208
WIRE -224 144 -256 144
WIRE 288 144 224 144
WIRE -256 512 -256 144
WIRE -224 512 -256 512
WIRE 320 512 224 512
WIRE -256 832 -256 512
WIRE -224 832 -256 832
WIRE 304 832 208 832
WIRE -256 1120 -256 832
WIRE -256 1120 -304 1120
WIRE -208 1120 -256 1120
WIRE -80 1120 -128 1120
WIRE 32 1120 -80 1120
WIRE 64 1120 32 1120
WIRE -304 1136 -304 1120
WIRE -80 1136 -80 1120
WIRE -304 1232 -304 1216
FLAG -304 1232 0
FLAG 304 832 outn
FLAG -304 1120 in
FLAG -80 1200 0
FLAG 32 1120 out
FLAG 320 512 out1n
FLAG 288 144 out2n
FLAG 320 -208 out3n
SYMBOL voltage -304 1120 R0
WINDOW 123 -164 89 Left 0
WINDOW 39 0 0 Left 0
WINDOW 3 -181 57 Left 0
WINDOW 0 32 57 Left 0
SYMATTR Value2 AC 1
SYMATTR Value PULSE(0 1 0 1N 1n 300m 1)
SYMATTR InstName V1
SYMBOL filtre_num\\FIR 32 800 R0
SYMATTR InstName U2
SYMATTR Value2 a0=0.2 a1=0.163746151 a2=0.134064009 a3=0.109762327 a4=0.089865793
SYMATTR SpiceLine a5=0.073575888 a6=0.060238842 a7=0.049319393 a8=0.040379304 a9=0.033059778
SYMATTR SpiceLine2 fe=50
SYMBOL res -112 1104 R90
WINDOW 0 0 56 VBottom 0
WINDOW 3 32 56 VTop 0
SYMATTR InstName R
SYMATTR Value 10k
SYMBOL cap -96 1136 R0
SYMATTR InstName C
SYMATTR Value 10µ
SYMBOL filtre_num\\iir 32 480 R0
SYMATTR InstName U1
SYMATTR Value2 a1=0.833 a2=0 a3=0 a4=0 a5=0
SYMATTR SpiceLine b0=0.1667 b1=0 b2=0 b3=0 b4=0 b5=0
SYMATTR SpiceLine2 fe=50
SYMBOL filtre_num\\iir 32 112 R0
SYMATTR InstName U3
SYMATTR Value2 a1=-0.00166 a2=0 a3=0 a4=0 a5=0
SYMATTR SpiceLine2 fe=50
SYMBOL filtre_num\\iir 16 -240 R0
SYMATTR InstName U4
SYMATTR Value2 a1=0.818 a2=0 a3=0 a4=0 a5=0
SYMATTR SpiceLine2 fe=50
SYMATTR SpiceLine b0=0.182 b1=0 b2=0 b3=0 b4=0 b5=0
TEXT -512 960 Left 0 !.tran 2
TEXT -512 992 Left 0 !;ac dec 1000 1 100
