Version 4
SHEET 1 908 680
WIRE -128 208 -240 208
WIRE 400 208 400 192
WIRE 400 208 304 208
WIRE -240 224 -240 208
WIRE -240 320 -240 304
FLAG -240 320 0
FLAG 400 192 out
FLAG -240 208 in
SYMBOL voltage -240 208 R0
WINDOW 123 -118 96 Left 2
WINDOW 39 0 0 Left 2
WINDOW 3 -181 57 Left 2
SYMATTR Value PULSE(0 1 0 1n 1n 1m 2m)
SYMATTR InstName V1
SYMBOL FIR 128 176 R0
SYMATTR InstName U2
SYMATTR Value2 a0=0.5 a1=0 a2=0 a3=0 a4=0
TEXT -112 392 Left 2 !.tran 20m
