Version 4
SHEET 1 880 680
WIRE 112 224 96 224
WIRE 160 224 112 224
WIRE 304 224 304 208
WIRE 304 224 272 224
WIRE 320 224 304 224
WIRE 448 224 416 224
WIRE 464 224 448 224
WIRE 608 224 576 224
WIRE 512 288 512 272
WIRE 512 288 496 288
WIRE 112 320 112 304
WIRE 512 384 512 368
FLAG 512 384 0
FLAG 112 320 0
FLAG 304 208 K
FLAG 448 224 V1
FLAG 496 288 V2
FLAG 608 224 VS
SYMBOL SpecialFunctions\\GAIN 240 224 R0
SYMATTR InstName U1
SYMBOL SpecialFunctions\\delay 384 224 R0
SYMATTR InstName U2
SYMBOL SpecialFunctions\\sommateur 544 224 R0
SYMATTR InstName U3
SYMBOL voltage 112 208 R0
WINDOW 123 0 0 Left 0
WINDOW 39 0 0 Left 0
SYMATTR InstName V1
SYMATTR Value SINE(0 1 1k)
SYMBOL voltage 512 272 R0
WINDOW 123 0 0 Left 0
WINDOW 39 0 0 Left 0
SYMATTR InstName V2
SYMATTR Value 1
TEXT 168 344 Left 0 !.param K=2\n.param fs=1k
TEXT 176 408 Left 0 !.tran 8ms
