Version 4
SHEET 1 1180 680
WIRE 192 -112 -96 -112
WIRE 272 -112 192 -112
WIRE 448 -112 272 -112
WIRE 592 -112 448 -112
WIRE 640 -112 592 -112
WIRE 720 -112 640 -112
WIRE 816 -112 720 -112
WIRE -96 -96 -96 -112
WIRE 272 -96 272 -112
WIRE 816 -96 816 -112
WIRE 720 -64 720 -112
WIRE 192 -32 192 -112
WIRE 592 -32 592 -112
WIRE 80 -16 16 -16
WIRE 160 -16 80 -16
WIRE 448 -16 448 -112
WIRE 272 0 272 -16
WIRE 272 0 224 0
WIRE 368 0 272 0
WIRE 400 0 368 0
WIRE 816 0 816 -16
WIRE 864 0 816 0
WIRE -96 16 -96 -16
WIRE 16 16 16 -16
WIRE 16 16 -96 16
WIRE 160 16 112 16
WIRE 112 32 112 16
WIRE 224 32 224 16
WIRE 224 32 192 32
WIRE 192 48 192 32
WIRE 720 48 720 16
WIRE -288 96 -368 96
WIRE -160 96 -176 96
WIRE -144 96 -160 96
WIRE 448 96 448 80
WIRE 592 96 592 32
WIRE 592 96 448 96
WIRE 736 96 592 96
WIRE 816 96 816 80
WIRE 16 112 16 80
WIRE 736 128 736 96
WIRE -16 176 -64 176
WIRE 192 176 -16 176
WIRE 256 176 192 176
WIRE -16 192 -16 176
WIRE -368 208 -368 96
WIRE -144 208 -368 208
WIRE 448 208 448 96
WIRE 592 224 592 96
WIRE 848 224 816 224
WIRE 192 256 192 176
WIRE 848 256 848 224
WIRE -368 272 -368 208
WIRE 160 272 144 272
WIRE -16 288 -16 272
WIRE 256 288 256 256
WIRE 256 288 224 288
WIRE 368 288 256 288
WIRE 400 288 368 288
WIRE 736 288 736 256
WIRE -368 304 -368 272
WIRE -16 304 -16 288
WIRE 96 304 -16 304
WIRE 160 304 96 304
WIRE 192 336 192 320
WIRE 224 336 224 304
WIRE 224 336 192 336
WIRE 448 336 448 304
WIRE 592 336 592 288
WIRE 592 336 448 336
WIRE 192 352 192 336
WIRE 448 368 448 336
WIRE -144 384 -144 208
WIRE -96 384 -144 384
WIRE -64 384 -96 384
WIRE -368 400 -368 384
FLAG -368 400 0
FLAG -368 272 in
FLAG 848 256 out1
FLAG 720 48 0
FLAG 448 368 0
FLAG 640 -112 VCC
FLAG -96 112 0
FLAG 736 288 0
FLAG 16 112 0
FLAG 816 96 0
FLAG 864 0 VCC/2
IOPIN 864 0 Out
FLAG 192 48 0
FLAG -16 400 0
FLAG 96 368 0
FLAG 144 272 VCC/2
IOPIN 144 272 In
FLAG 192 352 0
FLAG -96 384 in
FLAG 112 32 VCC/2
FLAG -64 176 VCC
FLAG -160 96 in-
FLAG 80 -16 vc1
FLAG 368 0 VG1
FLAG 368 288 VG2
FLAG -16 288 vc2
SYMBOL voltage -368 288 R0
WINDOW 123 -103 159 Left 2
WINDOW 39 0 0 Left 2
WINDOW 3 -75 211 Left 2
WINDOW 0 32 59 Left 2
SYMATTR Value PULSE(-1 12 0 1n 1n 100u 200u 100)
SYMATTR InstName V1
SYMBOL voltage 720 -80 R0
WINDOW 123 0 0 Left 2
WINDOW 39 0 0 Left 2
WINDOW 3 30 66 Left 2
SYMATTR Value 12
SYMATTR InstName V2
SYMBOL nmos 400 208 R0
SYMATTR InstName M2
SYMATTR Value BSS123
SYMBOL moteurs\\mcc 736 192 R0
SYMATTR InstName U2
SYMBOL pmos 400 80 M180
SYMATTR InstName M1
SYMATTR Value Si1013
SYMBOL nmos -144 16 R0
WINDOW 0 50 25 Left 2
WINDOW 3 56 51 Left 2
SYMATTR InstName M3
SYMATTR Value BSS123
SYMBOL res -112 -112 R0
SYMATTR InstName R1
SYMATTR Value 1k
SYMBOL cap 0 16 R0
SYMATTR InstName C1
SYMATTR Value 10n
SYMBOL res 800 -112 R0
SYMATTR InstName R2
SYMATTR Value 10k
SYMBOL res 800 -16 R0
SYMATTR InstName R3
SYMATTR Value 10k
SYMBOL nmos -64 304 R0
SYMATTR InstName M4
SYMATTR Value BSS123
SYMBOL res -32 176 R0
SYMATTR InstName R4
SYMATTR Value 1k
SYMBOL cap 80 304 R0
WINDOW 0 34 32 Left 2
WINDOW 3 30 55 Left 2
SYMATTR InstName C2
SYMATTR Value 30n
SYMBOL comp1_all 192 -64 R0
SYMATTR InstName U6
SYMBOL res 256 -112 R0
SYMATTR InstName R5
SYMATTR Value 330
SYMBOL comp1_all 192 224 R0
SYMATTR InstName U1
SYMBOL res 240 160 R0
SYMATTR InstName R6
SYMATTR Value 330
SYMBOL 74hct04.i -240 48 R0
SYMATTR InstName U3
SYMBOL schottky 608 288 R180
WINDOW 0 24 72 Left 2
WINDOW 3 -66 7 Left 2
SYMATTR InstName D1
SYMATTR Value 1N5817
SYMATTR Description Diode
SYMATTR Type diode
SYMBOL schottky 608 32 R180
WINDOW 0 24 72 Left 2
WINDOW 3 -66 6 Left 2
SYMATTR InstName D2
SYMATTR Value 1N5817
SYMATTR Description Diode
SYMATTR Type diode
TEXT 152 456 Left 2 !.tran 100m
TEXT -80 -144 Left 2 ;circuit retard ON 1
TEXT -104 456 Left 2 ;circuit retard ON 2
RECTANGLE Normal 336 144 -304 -128
RECTANGLE Normal 336 432 -304 160
