Version 4
SHEET 1 880 680
WIRE -512 32 -512 0
WIRE -512 144 -512 112
WIRE -464 0 -512 0
WIRE -288 304 -288 288
WIRE -288 400 -288 384
WIRE -288 464 -288 432
WIRE -208 256 -400 256
WIRE -208 288 -288 288
WIRE -208 400 -288 400
WIRE -208 432 -288 432
WIRE -160 224 -160 208
WIRE -160 480 -160 464
WIRE -112 464 -112 416
WIRE -32 32 -32 0
WIRE -32 144 -32 112
WIRE 32 352 -80 352
WIRE 64 352 32 352
WIRE 64 368 64 352
WIRE 64 464 64 448
WIRE 96 32 96 0
WIRE 96 144 96 112
FLAG -512 144 0
FLAG 32 352 out
FLAG 96 144 0
FLAG -112 464 0
FLAG -32 144 0
FLAG -288 464 0
FLAG 64 464 0
FLAG -464 0 in
FLAG -400 256 in
FLAG 96 0 v+
FLAG -32 0 V-
FLAG -160 208 V+
FLAG -160 480 V-
SYMBOL res -304 288 R0
SYMATTR InstName R1
SYMATTR Value 100
SYMBOL voltage 96 16 R0
WINDOW 123 0 0 Left 0
WINDOW 39 0 0 Left 0
SYMATTR InstName V1
SYMATTR Value 5
SYMBOL voltage -32 16 R0
WINDOW 123 0 0 Left 0
WINDOW 39 0 0 Left 0
SYMATTR InstName V2
SYMATTR Value -5
SYMBOL res 48 352 R0
SYMATTR InstName R2
SYMATTR Value 10.0K
SYMBOL voltage -512 16 R0
WINDOW 39 0 0 Left 0
WINDOW 3 20 101 Left 0
SYMATTR Value PULSE(0 .005 0 1e-6 1e-6 .01 .02)
SYMATTR Value2 AC 1 0
SYMATTR InstName V3
SYMBOL ina118 -192 336 R0
WINDOW 0 48 -103 Left 0
WINDOW 3 48 -80 Left 0
SYMATTR InstName U1
TEXT -560 -152 Left 0 !.inc INA118.MOD
TEXT -560 -80 Left 0 ;.tran 0 0.03 0 10e-6
TEXT -552 -112 Left 0 !.op
TEXT -560 -224 Left 0 !.options itl1=500 itl2=500
TEXT -480 -112 Left 0 !.ac dec 100 1 1MEG
TEXT -560 -184 Left 0 ;.options itl6=500
TEXT -560 -264 Left 0 !.options gmin=1e-11
