Version 4
SHEET 1 880 680
WIRE 256 80 128 80
FLAG 256 160 0
FLAG 128 160 0
SYMBOL voltage 128 64 R0
WINDOW 123 0 0 Left 2
WINDOW 39 24 44 Left 2
SYMATTR SpiceLine Rser=1
SYMATTR InstName V1
SYMATTR Value ""
SYMBOL MOV 240 64 R0
SYMATTR InstName U1
SYMATTR SpiceModel V275LA10
TEXT -208 216 Left 2 ;.SUBCKT MOV 1 2\n* model of Panasonic ERZV05D221 5mm diameter disc, 140 VAC max, 180 VDC max, \n* 380 Vmax @ 5A, 9 joules max. in 10 to 1000 us. \n*http://www.panasonic.com/industrial/components/pdf/awa0000ce2.pdf\n.param a=46671.474 b=256.579 c=102.242 d=9.57176 f=7.9462*10**8 g=0.142\nRmov 1 3 R=a*exp(d*atan((b-ABS(V(1,3)))/c))\nRpar 1 3 {f}\nRser 3 2 {g}\nCpar 1 3 110p\n.ENDS
TEXT 0 120 Left 2 !.dc V1 -800 800 1
TEXT -112 80 Left 2 ;.step V1 -600 600 1
TEXT -56 168 Left 2 !;tran 100u
