Version 4
SHEET 1 3592 952
WIRE 3392 -48 2768 -48
WIRE 3440 -48 3392 -48
WIRE 1104 80 1024 80
WIRE 1168 80 1104 80
WIRE 1312 80 1248 80
WIRE 1344 80 1312 80
WIRE 1504 80 1344 80
WIRE 1696 80 1616 80
WIRE 2000 80 2000 -80
WIRE 2000 80 1952 80
WIRE 2096 80 2000 80
WIRE 2224 80 2144 80
WIRE 2336 80 2304 80
WIRE 2384 80 2336 80
WIRE 2416 80 2384 80
WIRE 2512 80 2496 80
WIRE 2544 80 2512 80
WIRE 2640 80 2624 80
WIRE 2688 80 2640 80
WIRE 2768 80 2768 -48
WIRE 2768 80 2688 80
WIRE 2832 80 2768 80
WIRE 2992 80 2880 80
WIRE 3040 80 2992 80
WIRE 3152 80 3120 80
WIRE 3232 80 3152 80
WIRE 3344 80 3232 80
WIRE 1024 112 1024 80
WIRE 2144 112 2144 80
WIRE 2880 112 2880 80
WIRE 1104 128 1104 80
WIRE 1312 128 1312 80
WIRE 2096 128 2096 80
WIRE 2336 128 2336 80
WIRE 2512 128 2512 80
WIRE 2640 128 2640 80
WIRE 2832 128 2832 80
WIRE 2992 128 2992 80
WIRE 3152 128 3152 80
WIRE 1824 192 1824 144
WIRE 1024 240 1024 192
WIRE 1104 240 1104 208
WIRE 1312 240 1312 192
WIRE 2096 240 2096 176
WIRE 2144 240 2144 192
WIRE 2336 240 2336 208
WIRE 2512 240 2512 192
WIRE 2640 240 2640 192
WIRE 2832 240 2832 176
WIRE 2880 240 2880 192
WIRE 2992 240 2992 208
WIRE 3152 240 3152 192
WIRE 1552 352 1552 128
WIRE 3344 352 3344 80
WIRE 3344 352 1552 352
FLAG 1024 240 0
FLAG 1344 80 VSET
FLAG 2096 240 0
FLAG 2144 240 0
FLAG 2384 80 EOUT
FLAG 2336 240 0
FLAG 2512 240 0
FLAG 2640 240 0
FLAG 2688 80 VOUT
FLAG 1104 240 0
FLAG 2832 240 0
FLAG 2880 240 0
FLAG 3232 80 ESENSOR
FLAG 3152 240 0
FLAG 3392 -48 VOUT
FLAG 2992 240 0
FLAG 1312 240 0
FLAG 1824 192 0
FLAG 2000 -80 COMMAND
SYMBOL voltage 1024 96 R0
WINDOW 123 0 0 Left 2
WINDOW 3 -106 219 Left 2
WINDOW 0 -61 4 Left 2
SYMATTR Value PULSE(0m 10 0 1n 1n 5 10)
SYMATTR InstName VSET
SYMATTR SpiceLine Rser=1m
SYMBOL res 1088 112 R0
WINDOW 0 39 37 Left 2
SYMATTR InstName RSET
SYMATTR Value 1MEG
SYMBOL e 2144 96 R0
WINDOW 0 8 8 Left 2
WINDOW 3 29 98 Left 2
SYMATTR InstName EOUT
SYMATTR Value 1
SYMBOL res 2320 112 R0
SYMATTR InstName ROUT
SYMATTR Value 1MEG
SYMBOL res 2400 96 R270
WINDOW 0 32 56 VTop 2
WINDOW 3 0 56 VBottom 2
SYMATTR InstName RP1
SYMATTR Value 1
SYMBOL res 2528 96 R270
WINDOW 0 32 56 VTop 2
WINDOW 3 0 56 VBottom 2
SYMATTR InstName RP2
SYMATTR Value 1
SYMBOL cap 2496 128 R0
SYMATTR InstName CP1
SYMATTR Value 0.1
SYMBOL cap 2624 128 R0
SYMATTR InstName CP2
SYMATTR Value 0.1
SYMBOL res 2208 96 R270
WINDOW 0 35 17 VTop 2
WINDOW 3 61 85 VBottom 2
SYMATTR InstName R4
SYMATTR Value 1m
SYMBOL e 2880 96 R0
WINDOW 0 8 8 Left 2
WINDOW 3 29 98 Left 2
SYMATTR InstName ESENSOR
SYMATTR Value 1
SYMBOL res 3024 96 R270
WINDOW 0 35 17 VTop 2
WINDOW 3 61 85 VBottom 2
SYMATTR InstName RS
SYMATTR Value 10K
SYMBOL cap 3136 128 R0
SYMATTR InstName CS
SYMATTR Value 0.1µ
SYMBOL res 2976 112 R0
SYMATTR InstName RES
SYMATTR Value 1MEG
SYMBOL cap 1296 128 R0
SYMATTR InstName C1
SYMATTR Value 0.1
SYMBOL res 1152 96 R270
WINDOW 0 32 56 VTop 2
WINDOW 3 0 56 VBottom 2
SYMATTR InstName R13
SYMATTR Value 1
SYMBOL addon\\automation_laplace\\soustracteur 1584 80 R0
SYMATTR InstName U1
SYMBOL addon\\automation_laplace\\PID_real 1808 48 R0
SYMATTR InstName U2
SYMATTR Value Kp=10 Ki=100 Kd=0.1
TEXT 920 344 Left 2 !.tran 0 20 0 1m
TEXT 2200 -16 Left 2 ;PROCESS BLOCK WITH TIME LAG
TEXT 1024 16 Left 2 ;STIMULUS
TEXT 2840 -16 Left 2 ;SENSOR BLOCK WITH TIME LAG
RECTANGLE Normal 1408 288 960 32
RECTANGLE Normal 2736 288 2064 0
RECTANGLE Normal 3296 288 2800 0
