Version 4
SHEET 1 880 680
WIRE -384 80 -496 80
WIRE -240 80 -304 80
WIRE 16 80 -96 80
WIRE 160 80 96 80
WIRE -336 160 -352 160
WIRE -320 160 -336 160
WIRE 64 160 48 160
WIRE 80 160 64 160
WIRE -320 176 -320 160
WIRE 80 176 80 160
WIRE -496 192 -496 80
WIRE -352 192 -496 192
WIRE -96 192 -96 80
WIRE 48 192 -96 192
WIRE -240 208 -240 80
WIRE -240 208 -288 208
WIRE -208 208 -240 208
WIRE 160 208 160 80
WIRE 160 208 112 208
WIRE 176 208 160 208
WIRE -352 224 -416 224
WIRE 48 224 0 224
WIRE 0 240 0 224
WIRE -336 256 -352 256
WIRE -320 256 -320 240
WIRE -320 256 -336 256
WIRE 64 256 48 256
WIRE 80 256 80 240
WIRE 80 256 64 256
WIRE -496 304 -496 272
WIRE -96 304 -96 272
WIRE 0 336 0 320
WIRE -416 352 -416 304
WIRE -80 384 -112 384
WIRE 16 384 0 384
WIRE 144 384 96 384
WIRE 0 416 0 384
WIRE -416 448 -416 432
WIRE -112 448 -112 384
WIRE 144 448 144 384
WIRE -112 464 -112 448
WIRE 144 464 144 448
FLAG 0 416 0
FLAG 176 208 out
FLAG 64 160 vcc
FLAG 144 448 vcc
FLAG -112 448 vee
FLAG 64 256 vee
FLAG -416 448 0
FLAG -208 208 out1
FLAG -336 160 vcc
FLAG -336 256 vee
FLAG -496 304 0
FLAG -96 304 0
FLAG 0 336 0
SYMBOL OpAmp.Add\\OPAMP1_all 80 144 R0
WINDOW 38 -43 145 Left 0
SYMATTR InstName U1
SYMATTR SpiceModel LM741/NS
SYMBOL res -112 176 R0
SYMATTR InstName R1
SYMATTR Value 1k
SYMBOL voltage 112 384 R90
WINDOW 123 0 0 Left 0
WINDOW 39 0 0 Left 0
WINDOW 0 31 41 Left 0
WINDOW 3 25 65 Left 0
SYMATTR InstName V2
SYMATTR Value 15
SYMBOL res 112 64 R90
WINDOW 0 0 56 VBottom 0
WINDOW 3 32 56 VTop 0
SYMATTR InstName R4
SYMATTR Value 1Meg
SYMBOL voltage 16 384 R90
WINDOW 123 0 0 Left 0
WINDOW 39 0 0 Left 0
WINDOW 0 30 44 Left 0
WINDOW 3 28 67 Left 0
SYMATTR InstName V1
SYMATTR Value 15
SYMBOL res -512 176 R0
WINDOW 0 -16 30 Left 0
WINDOW 3 -25 66 Left 0
SYMATTR InstName R3
SYMATTR Value 1k
SYMBOL res -288 64 R90
WINDOW 0 0 56 VBottom 0
WINDOW 3 32 56 VTop 0
SYMATTR InstName R5
SYMATTR Value 1Meg
SYMBOL res -432 208 R0
WINDOW 0 -16 30 Left 0
WINDOW 3 -25 66 Left 0
SYMATTR InstName R2
SYMATTR Value 1k
SYMBOL Opamps\\LT1024 -320 144 R0
WINDOW 3 -46 150 Left 0
SYMATTR InstName U2
SYMBOL voltage -416 336 R0
WINDOW 123 0 0 Left 0
WINDOW 39 0 0 Left 0
SYMATTR InstName V3
SYMATTR Value SINE(0 100u 1)
SYMBOL res -16 224 R0
WINDOW 0 -16 30 Left 0
WINDOW 3 -25 66 Left 0
SYMATTR InstName R6
SYMATTR Value 1k
TEXT -256 304 Left 0 !.tran 2
