Version 4
SHEET 1 880 680
WIRE -208 144 -256 144
WIRE -160 144 -208 144
WIRE 64 160 48 160
WIRE 80 160 64 160
WIRE 80 176 80 160
WIRE -16 192 -96 192
WIRE 48 192 -16 192
WIRE 144 208 112 208
WIRE 176 208 144 208
WIRE 48 224 0 224
WIRE -256 240 -256 224
WIRE -224 240 -256 240
WIRE 64 272 48 272
WIRE 80 272 80 240
WIRE 80 272 64 272
WIRE -208 320 -256 320
WIRE -96 320 -96 272
WIRE 0 320 0 224
WIRE 0 320 -96 320
WIRE 0 336 0 320
FLAG 0 336 0
FLAG -224 240 0
FLAG 144 208 out
FLAG 64 160 vcc
FLAG -208 144 vcc
FLAG -208 320 vee
FLAG 64 272 vee
FLAG -16 192 in
SYMBOL OpAmp.Add\\OPAMP1_all 80 144 R0
WINDOW 0 -20 66 Left 0
WINDOW 38 -25 150 Left 0
SYMATTR InstName U1
SYMATTR SpiceModel LM741/NS
SYMBOL voltage -256 128 R0
WINDOW 123 0 0 Left 0
WINDOW 39 0 0 Left 0
WINDOW 0 36 42 Left 0
WINDOW 3 37 67 Left 0
SYMATTR InstName V2
SYMATTR Value 15
SYMBOL voltage -256 224 R0
WINDOW 123 0 0 Left 0
WINDOW 39 0 0 Left 0
WINDOW 0 31 48 Left 0
WINDOW 3 30 69 Left 0
SYMATTR InstName V1
SYMATTR Value 15
SYMBOL voltage -96 176 R0
WINDOW 123 -39 144 Left 0
WINDOW 39 0 0 Left 0
WINDOW 0 32 63 Left 0
WINDOW 3 -49 117 Left 0
SYMATTR Value2 AC 0.05m
SYMATTR InstName V4
SYMATTR Value SINE(1m 0.05m 2)
TEXT -128 376 Left 0 !;tran 2s
TEXT -16 376 Left 0 !.ac dec 100 1 10Meg
