Version 4
SHEET 1 880 680
WIRE 48 80 16 80
WIRE -176 128 -224 128
WIRE -128 128 -176 128
WIRE 64 160 48 160
WIRE 80 160 64 160
WIRE 80 176 80 160
WIRE -64 192 -96 192
WIRE 16 192 16 80
WIRE 48 192 16 192
WIRE 128 208 128 80
WIRE 128 208 112 208
WIRE 144 208 128 208
WIRE 176 208 144 208
WIRE -224 224 -224 208
WIRE -192 224 -224 224
WIRE 32 224 0 224
WIRE 48 224 32 224
WIRE 0 240 0 224
WIRE 64 272 48 272
WIRE 80 272 80 240
WIRE 80 272 64 272
WIRE -176 304 -224 304
WIRE 0 336 0 320
FLAG 0 336 0
FLAG -192 224 0
FLAG 144 208 out
FLAG 64 160 vcc
FLAG -176 128 vcc
FLAG -176 304 vee
FLAG 64 272 vee
FLAG 32 224 in
FLAG -96 192 0
SYMBOL OpAmp.Add\\OPAMP1_all 80 144 R0
WINDOW 0 -17 64 Left 0
WINDOW 38 16 105 Left 0
SYMATTR InstName U1
SYMATTR SpiceModel LF411
SYMBOL voltage -224 112 R0
WINDOW 123 0 0 Left 0
WINDOW 39 0 0 Left 0
WINDOW 0 31 43 Left 0
WINDOW 3 33 68 Left 0
SYMATTR InstName V2
SYMATTR Value 15
SYMBOL voltage -224 208 R0
WINDOW 123 0 0 Left 0
WINDOW 39 0 0 Left 0
WINDOW 0 30 48 Left 0
WINDOW 3 32 72 Left 0
SYMATTR InstName V1
SYMATTR Value 15
SYMBOL voltage 0 224 R0
WINDOW 123 23 96 Left 0
WINDOW 39 0 0 Left 0
WINDOW 0 -64 54 Left 0
WINDOW 3 25 119 Left 0
SYMATTR Value2 AC 20m
SYMATTR InstName V4
SYMATTR Value SINE(1m 10m 20k)
SYMBOL res 32 176 R90
WINDOW 0 0 56 VBottom 0
WINDOW 3 25 86 VTop 0
SYMATTR InstName R1
SYMATTR Value 1k
SYMBOL res 144 64 R90
WINDOW 0 0 56 VBottom 0
WINDOW 3 32 56 VTop 0
SYMATTR InstName R2
SYMATTR Value 100k
TEXT -48 408 Left 0 !.tran 1ms
TEXT 144 400 Left 0 !;ac dec 100 1 3Meg
TEXT -48 432 Left 0 !.MEAS TRAN AMP_VOUT PP V(out)/2 from 0.4m to 1m
