Version 4
SHEET 1 2392 728
WIRE 1792 -416 1712 -416
WIRE 1712 -368 1712 -416
WIRE 1184 -320 992 -320
WIRE 992 -288 992 -320
WIRE 1184 -208 1184 -320
WIRE 1248 -208 1184 -208
WIRE 1360 -208 1312 -208
WIRE 1376 -208 1360 -208
WIRE 1456 -208 1376 -208
WIRE 1792 -192 1792 -416
WIRE 992 -176 992 -208
WIRE 1552 -144 1408 -144
WIRE 1584 -144 1552 -144
WIRE 1696 -144 1664 -144
WIRE 1712 -144 1696 -144
WIRE 1136 -128 1024 -128
WIRE 1456 -112 1456 -208
WIRE 1712 -112 1712 -144
WIRE 1744 -112 1712 -112
WIRE 1184 -64 1184 -208
WIRE 1216 -64 1184 -64
WIRE 1376 -64 1376 -208
WIRE 1376 -64 1344 -64
WIRE 1136 -32 1136 -128
WIRE 1216 -32 1136 -32
WIRE 1408 -32 1408 -144
WIRE 1408 -32 1344 -32
WIRE 1024 -16 1024 -48
WIRE 1104 -16 1024 -16
WIRE 1024 0 1024 -16
WIRE 1104 0 1104 -16
WIRE 1216 0 1104 0
WIRE 1456 0 1456 -48
WIRE 1456 0 1344 0
WIRE 1680 0 1456 0
WIRE 1792 0 1792 -96
WIRE 1792 0 1680 0
WIRE 1872 0 1792 0
WIRE 2000 0 1952 0
WIRE 2064 0 2000 0
WIRE 2080 0 2064 0
WIRE 1216 32 1152 32
WIRE 1424 32 1344 32
WIRE 1792 32 1792 0
WIRE 2000 64 2000 0
WIRE 2080 64 2080 0
WIRE 1424 96 1424 32
WIRE 1520 96 1424 96
WIRE 1584 96 1520 96
WIRE 1696 96 1664 96
WIRE 1712 96 1696 96
WIRE 1712 112 1712 96
WIRE 1744 112 1712 112
WIRE 1024 128 1024 64
WIRE 1088 128 1024 128
WIRE 1152 128 1152 32
WIRE 1152 128 1088 128
WIRE 1088 144 1088 128
WIRE 2000 192 2000 128
WIRE 2048 192 2000 192
WIRE 2080 192 2080 144
WIRE 2080 192 2048 192
WIRE 1792 208 1792 128
WIRE 2048 208 2048 192
FLAG 992 -176 0
FLAG 992 -288 Vcc
FLAG 1792 208 0
FLAG 1712 -288 0
FLAG 2048 208 0
FLAG 1696 -144 Vg1
FLAG 1696 96 Vg2
FLAG 1680 0 Vs
FLAG 1520 96 Lo
FLAG 1360 -208 Vb
FLAG 1552 -144 Ho
FLAG 1088 144 0
FLAG 2064 0 Vout
SYMBOL cap 1008 0 R0
SYMATTR InstName C1
SYMATTR Value 10n
SYMBOL voltage 992 -304 R0
WINDOW 123 0 0 Left 2
WINDOW 39 0 0 Left 2
SYMATTR InstName V1
SYMATTR Value 15
SYMBOL res 1680 -160 R90
WINDOW 0 0 56 VBottom 2
WINDOW 3 32 56 VTop 2
SYMATTR InstName R6
SYMATTR Value 10
SYMBOL res 1680 80 R90
WINDOW 0 0 56 VBottom 2
WINDOW 3 32 56 VTop 2
SYMATTR InstName R7
SYMATTR Value 10
SYMBOL cap 1440 -112 R0
SYMATTR InstName C2
SYMATTR Value 1µ
SYMBOL ind 1856 16 R270
WINDOW 0 32 56 VTop 2
WINDOW 3 5 56 VBottom 2
SYMATTR InstName L1
SYMATTR Value 100µ
SYMATTR SpiceLine Rser=10m
SYMBOL cap 1984 64 R0
SYMATTR InstName C5
SYMATTR Value 50µ
SYMATTR SpiceLine Rser=20m
SYMBOL res 2064 48 R0
SYMATTR InstName R8
SYMATTR Value 24
SYMBOL voltage 1712 -384 R0
WINDOW 123 0 0 Left 2
WINDOW 39 24 44 Left 2
SYMATTR SpiceLine Rser=100m
SYMATTR InstName V2
SYMATTR Value 48
SYMBOL res 1008 -144 R0
SYMATTR InstName R5
SYMATTR Value 6K
SYMBOL addon\\driver_MOS\\IR2153 1296 -32 R0
SYMATTR InstName U1
SYMBOL addon\\Transistors\\POWER_NMOS 1744 -192 R0
SYMATTR InstName U2
SYMBOL addon\\Transistors\\POWER_NMOS 1744 32 R0
SYMATTR InstName U3
SYMBOL diode 1248 -192 R270
WINDOW 0 32 32 VTop 2
WINDOW 3 0 32 VBottom 2
SYMATTR InstName D1
SYMATTR Value 1N4148
TEXT 688 96 Left 2 !.tran 0 3m 0 1u
