Version 4
SHEET 1 3840 2428
WIRE 368 -368 256 -368
WIRE 592 -368 368 -368
WIRE 256 -336 256 -368
WIRE 592 -288 592 -368
WIRE 256 -224 256 -256
WIRE 368 -176 368 -368
WIRE 336 -160 112 -160
WIRE 592 -144 592 -208
WIRE 592 -144 400 -144
WIRE 704 -144 592 -144
WIRE -208 -128 -352 -128
WIRE 336 -128 -128 -128
WIRE -352 -80 -352 -128
WIRE 112 -80 112 -160
WIRE 368 0 368 -112
WIRE 400 0 368 0
WIRE -352 16 -352 0
WIRE 112 16 112 0
WIRE 208 16 112 16
WIRE 112 48 112 16
WIRE 368 48 368 0
WIRE 112 160 112 128
WIRE 368 160 368 128
FLAG 256 -224 0
FLAG 368 160 0
FLAG -352 16 0
FLAG 704 -144 out_st_339
FLAG 112 160 0
FLAG -352 -128 in
FLAG 256 -368 vcc
FLAG 400 0 vee
FLAG 208 16 ref
FLAG 400 -128 0
SYMBOL voltage 256 -352 R0
SYMATTR InstName V2
SYMATTR Value 5
SYMBOL voltage 368 32 R0
SYMATTR InstName V3
SYMATTR Value -5
SYMBOL res 576 -304 R0
SYMATTR InstName R1
SYMATTR Value 5k
SYMBOL res 96 -96 R0
SYMATTR InstName R2
SYMATTR Value 1k
SYMBOL res -224 -112 R270
WINDOW 0 32 56 VTop 2
WINDOW 3 0 56 VBottom 2
SYMATTR InstName R3
SYMATTR Value 1k
SYMBOL voltage -352 -96 R0
WINDOW 123 0 0 Left 2
WINDOW 39 0 0 Left 2
SYMATTR InstName V1
SYMATTR Value PULSE(0.9 1.1 1u 10n 10n 5u 10u)
SYMBOL voltage 112 32 R0
SYMATTR InstName V4
SYMATTR Value 1
SYMBOL addon\\Comparators\\comp1_all 368 -208 R0
SYMATTR InstName U5
SYMATTR SpiceModel LM319
TEXT -336 -296 Left 2 ;.dc V1 0.9  1.1 1m
TEXT -336 -264 Left 2 !.tran 0 10u 0 0.1u
TEXT -336 -544 Left 2 ;http://focus.ti.com/analog/docs/analogtechdoc.tsp?familyId=81&navSection=models&templateId=3
TEXT -336 -512 Left 2 ;http://www.st.com/stonline/products/support/macromdl/index.htm
TEXT -336 -576 Left 2 ;Links to models:
TEXT 0 -432 Left 2 ;ST
TEXT 0 -400 Left 2 ;TI
TEXT 0 -368 Left 2 ;TI
TEXT -328 -688 Left 2 ;LM393 And LM339 models from TI and ST and Jim Thompson.
TEXT -336 -648 Left 2 ;ST uses a different pin order for their SPICE opamp models and thus they require\nthe "non standard"  XOPAMP_ST.ASY symbol.
TEXT -336 -480 Left 2 ;http://www.analog-innovations.com/subcircuits.html
TEXT 0 -336 Left 2 ;An.-In.
