Version 4
SHEET 1 1052 680
WIRE 768 256 336 256
WIRE 336 336 336 256
WIRE 768 352 768 256
WIRE 992 384 816 384
WIRE 336 496 336 416
WIRE 688 496 336 496
WIRE 768 496 768 432
WIRE 768 496 688 496
FLAG 688 496 0
FLAG 992 384 out
SYMBOL voltage 336 320 R0
SYMATTR InstName V1
SYMATTR Value 10
SYMBOL addon\\Potentiometre\\pot 752 448 M180
WINDOW 3 36 92 Left 2
SYMATTR InstName U1
SYMATTR Value Rt=10K set={w}
TEXT 304 520 Left 2 !.op
TEXT 400 160 Left 2 !.STEP PARAM w= 0.1 1 0.2
