Version 4
SHEET 1 880 680
WIRE -64 128 -80 128
WIRE 48 128 16 128
WIRE 128 128 112 128
WIRE -80 192 -80 128
WIRE -48 192 -80 192
WIRE 80 192 80 176
WIRE 80 192 64 192
WIRE 128 192 128 128
WIRE 128 192 80 192
WIRE 144 192 128 192
WIRE -80 272 -80 192
WIRE -80 384 -80 336
FLAG -80 384 0
FLAG 144 192 out
IOPIN 144 192 Out
SYMBOL res 32 112 R90
WINDOW 0 -2 95 VBottom 2
WINDOW 3 -27 50 VTop 2
SYMATTR InstName R1
SYMATTR Value 39K
SYMATTR SpiceLine tol=1 pwr=0.1
SYMBOL Pote 48 144 R270
WINDOW 0 -14 -37 VRight 2
WINDOW 123 75 29 VCenter 2
WINDOW 3 49 34 VCenter 2
SYMATTR InstName Freq
SYMATTR Value2 Set={Set}
SYMATTR Value Rt=10k
SYMBOL cap -96 272 R0
WINDOW 0 -45 8 Left 2
WINDOW 3 -48 54 Left 2
SYMATTR InstName C1
SYMATTR Value 2n2
SYMATTR SpiceLine Rpar=1e8
SYMBOL Dig_Add\\CD4xxx\\CD40106B.i 0 144 R0
SYMATTR InstName U1
TEXT -40 312 Left 2 !.tran 1m startup uic
TEXT 272 96 Left 2 !.STEP PARAM Set= 0.1 1 0.2
