Version 4
SHEET 1 1568 916
WIRE 880 -288 816 -288
WIRE 992 -288 944 -288
WIRE 544 -176 256 -176
WIRE 784 -176 624 -176
WIRE 816 -176 816 -288
WIRE 816 -176 784 -176
WIRE 896 -176 896 -208
WIRE 816 -160 816 -176
WIRE 864 -160 816 -160
WIRE 992 -144 992 -288
WIRE 992 -144 928 -144
WIRE 1136 -144 1136 -160
WIRE 1136 -144 992 -144
WIRE 864 -128 832 -128
WIRE 1264 -112 1264 -128
WIRE 896 -96 896 -112
WIRE 832 -48 832 -128
WIRE 944 -48 912 -48
WIRE 960 -48 944 -48
WIRE 912 80 848 80
WIRE 1024 80 976 80
WIRE 496 112 464 112
WIRE 752 112 720 112
WIRE 464 160 464 112
WIRE 720 160 720 112
WIRE 256 192 256 -176
WIRE 928 192 928 160
WIRE 144 208 80 208
WIRE 256 208 256 192
WIRE 256 208 208 208
WIRE 368 208 256 208
WIRE 384 208 368 208
WIRE 544 208 512 208
WIRE 624 208 544 208
WIRE 832 208 768 208
WIRE 848 208 848 80
WIRE 848 208 832 208
WIRE 896 208 848 208
WIRE 1024 224 1024 80
WIRE 1024 224 960 224
WIRE 1168 224 1168 208
WIRE 1168 224 1024 224
WIRE 544 240 544 208
WIRE 896 240 864 240
WIRE 720 272 720 240
WIRE 928 272 928 256
WIRE 464 288 464 240
WIRE 80 320 80 288
WIRE 544 320 544 304
WIRE 864 320 864 240
WIRE 976 320 944 320
WIRE 992 320 976 320
WIRE 688 352 688 240
WIRE 432 400 432 240
WIRE 432 400 416 400
WIRE 464 400 432 400
WIRE 512 400 464 400
WIRE 688 400 688 352
WIRE 688 400 624 400
WIRE 992 432 928 432
WIRE 416 464 416 400
WIRE 96 480 32 480
WIRE 416 560 416 544
FLAG 416 560 0
FLAG 80 320 0
FLAG 464 400 CTR
FLAG 544 320 0
FLAG 1168 208 VOUT
IOPIN 1168 208 Out
FLAG 256 192 vin
FLAG 96 560 0
FLAG 32 480 5
FLAG 496 112 5
FLAG 464 288 0
FLAG 720 272 0
FLAG 752 112 5
FLAG 688 352 ~CTR
FLAG 928 272 0
FLAG 992 512 0
FLAG 928 432 10
FLAG 928 160 10
FLAG 864 400 0
FLAG 976 320 5
FLAG 1136 -160 VOUT1
IOPIN 1136 -160 Out
FLAG 896 -96 0
FLAG 896 -208 10
FLAG 832 32 0
FLAG 944 -48 5
FLAG 784 -176 v-
FLAG 832 208 vv-
SYMBOL voltage 416 448 R0
WINDOW 123 0 0 Left 0
WINDOW 39 0 0 Left 0
WINDOW 3 27 77 Left 0
SYMATTR Value PULSE(0 5 0 1n 1n 5u 10u)
SYMATTR InstName V1
SYMBOL voltage 80 192 R0
WINDOW 123 24 132 Left 0
WINDOW 39 0 0 Left 0
WINDOW 3 9 102 Left 0
SYMATTR Value2 AC 0.1
SYMATTR Value SINE(2.5 2.5 5k)
SYMATTR InstName V2
SYMBOL cap 528 240 R0
SYMATTR InstName C1
SYMATTR Value 1n
SYMBOL voltage 96 464 R0
WINDOW 123 0 0 Left 0
WINDOW 39 0 0 Left 0
SYMATTR InstName V3
SYMATTR Value 5
SYMBOL Dig_Add\\TTL\\HC&U\\74hc04 560 336 R0
SYMATTR InstName U3
SYMBOL Dig_Add\\TTL\\HC&U\\74HC4066 448 176 R0
SYMATTR InstName U1
SYMBOL Dig_Add\\TTL\\HC&U\\74HC4066 704 176 R0
SYMATTR InstName U2
SYMBOL res 640 -192 R90
WINDOW 0 0 56 VBottom 0
WINDOW 3 32 56 VTop 0
SYMATTR InstName R1
SYMATTR Value 10k
SYMBOL OpAmp.Add\\LM324_NS 928 160 R0
SYMATTR InstName U4
SYMBOL voltage 992 416 R0
WINDOW 123 0 0 Left 0
WINDOW 39 0 0 Left 0
SYMATTR InstName V4
SYMATTR Value 10
SYMBOL cap 976 64 R90
WINDOW 0 0 32 VBottom 0
WINDOW 3 32 32 VTop 0
SYMATTR InstName C2
SYMATTR Value 10n
SYMBOL res 960 304 R90
WINDOW 0 0 56 VBottom 0
WINDOW 3 32 56 VTop 0
SYMATTR InstName R2
SYMATTR Value 10k
SYMBOL res 880 416 R180
WINDOW 0 36 76 Left 0
WINDOW 3 36 40 Left 0
SYMATTR InstName R3
SYMATTR Value 10k
SYMBOL OpAmp.Add\\LM324_NS 896 -208 R0
SYMATTR InstName U5
SYMBOL cap 944 -304 R90
WINDOW 0 0 32 VBottom 0
WINDOW 3 32 32 VTop 0
SYMATTR InstName C4
SYMATTR Value 10n
SYMBOL res 928 -64 R90
WINDOW 0 0 56 VBottom 0
WINDOW 3 32 56 VTop 0
SYMATTR InstName R4
SYMATTR Value 20k
SYMBOL res 848 48 R180
WINDOW 0 36 76 Left 0
WINDOW 3 36 40 Left 0
SYMATTR InstName R5
SYMATTR Value 20k
TEXT -32 360 Left 0 !.tran 10ms uic
TEXT -32 392 Left 0 !;.step param freq list 3k
TEXT -32 424 Left 0 !;ac dec 1000 1 1Meg
TEXT 1400 24 Left 0 !.ic V(v-)=2.5\n.ic V(vv-)=2.5
RECTANGLE Normal 720 -96 464 -240
RECTANGLE Normal 800 592 320 48
