Version 4
SHEET 1 1072 692
WIRE 368 0 336 0
WIRE 592 0 448 0
WIRE 928 16 928 -112
WIRE 880 32 864 32
WIRE 336 48 336 0
WIRE -32 80 -48 80
WIRE 0 80 -32 80
WIRE 96 80 80 80
WIRE 272 80 176 80
WIRE 400 80 272 80
WIRE 448 80 400 80
WIRE 528 80 448 80
WIRE -48 96 -48 80
WIRE 272 96 272 80
WIRE 400 112 400 80
WIRE 528 112 528 80
WIRE 928 128 928 112
WIRE 960 128 928 128
WIRE 304 160 272 160
WIRE 336 160 336 48
WIRE 336 160 304 160
WIRE 592 160 592 0
WIRE 624 160 592 160
WIRE 864 208 864 32
WIRE 864 208 832 208
WIRE 880 208 864 208
WIRE -48 240 -48 176
WIRE -16 240 -48 240
WIRE 272 240 272 224
WIRE 272 240 144 240
WIRE 400 240 400 208
WIRE 400 240 272 240
WIRE 448 240 400 240
WIRE 528 240 528 208
WIRE 528 240 448 240
WIRE -48 256 -48 240
WIRE 928 256 928 224
WIRE 304 288 304 160
WIRE 304 288 272 288
WIRE 304 304 304 288
WIRE 416 304 304 304
WIRE 592 304 592 160
WIRE 592 304 480 304
WIRE 304 384 304 368
WIRE 592 384 592 368
FLAG 624 160 out1
IOPIN 624 160 Out
FLAG -48 256 0
FLAG 448 80 VDD
FLAG 448 240 GROUND
FLAG -32 80 Vcc
FLAG 272 288 out1
FLAG 304 384 0
FLAG 592 384 0
FLAG 928 256 0
FLAG 928 -112 VCC
FLAG 832 208 in
FLAG 960 128 out1
IOPIN 960 128 Out
FLAG 336 48 in
SYMBOL voltage -48 80 R0
WINDOW 123 0 0 Left 0
WINDOW 39 0 0 Left 0
SYMATTR InstName V2
SYMATTR Value 5V
SYMBOL res 96 64 R90
WINDOW 0 0 56 VBottom 0
WINDOW 3 32 56 VTop 0
SYMATTR InstName R1
SYMATTR Value 0.1
SYMBOL ind 192 64 R90
WINDOW 0 5 56 VBottom 0
WINDOW 3 32 56 VTop 0
SYMATTR InstName L1
SYMATTR Value 100n
SYMBOL res 80 224 R90
WINDOW 0 0 56 VBottom 0
WINDOW 3 32 56 VTop 0
SYMATTR InstName R2
SYMATTR Value 0.1
SYMBOL ind 160 224 R90
WINDOW 0 5 56 VBottom 0
WINDOW 3 32 56 VTop 0
SYMATTR InstName L2
SYMATTR Value 100n
SYMBOL cap 288 304 R0
SYMATTR InstName C1
SYMATTR Value 33p
SYMBOL cap 576 304 R0
SYMATTR InstName C2
SYMATTR Value 33p
SYMBOL Misc\\xtal 480 288 R90
WINDOW 0 0 32 VBottom 0
WINDOW 3 32 32 VTop 0
SYMATTR InstName C3
SYMATTR Value 30p
SYMATTR SpiceLine Rser=10 Lser=0.3m Cpar=3p
SYMBOL diode 288 160 R180
WINDOW 0 24 72 Left 0
WINDOW 3 24 0 Left 0
SYMATTR InstName D1
SYMBOL diode 288 224 R180
WINDOW 0 24 72 Left 0
WINDOW 3 24 0 Left 0
SYMATTR InstName D2
SYMBOL res 464 -16 R90
WINDOW 0 0 56 VBottom 0
WINDOW 3 32 56 VTop 0
SYMATTR InstName R3
SYMATTR Value 1Meg
SYMBOL pmos 880 112 M180
SYMATTR InstName M1
SYMBOL nmos 880 128 R0
SYMATTR InstName M2
TEXT 0 352 Left 0 !.tran 40m startup uic
