Version 4
SHEET 1 892 692
WIRE 0 80 -48 80
WIRE 96 80 80 80
WIRE 400 80 176 80
WIRE 448 80 400 80
WIRE 528 80 448 80
WIRE -48 96 -48 80
WIRE 400 112 400 80
WIRE 528 112 528 80
WIRE 352 144 336 144
WIRE 480 144 464 144
WIRE 160 160 144 160
WIRE 272 160 240 160
WIRE 336 160 336 144
WIRE 336 160 272 160
WIRE 464 160 464 144
WIRE 464 160 448 160
WIRE 624 160 576 160
WIRE 336 176 336 160
WIRE 352 176 336 176
WIRE 464 176 464 160
WIRE 480 176 464 176
WIRE -48 240 -48 176
WIRE -16 240 -48 240
WIRE 400 240 400 208
WIRE 400 240 144 240
WIRE 448 240 400 240
WIRE 528 240 528 208
WIRE 528 240 448 240
WIRE -48 256 -48 240
FLAG 144 160 0
FLAG 272 160 VIN
FLAG 624 160 out1
IOPIN 624 160 Out
FLAG -48 256 0
FLAG 448 80 VDD
FLAG 448 240 GROUND
SYMBOL voltage 256 160 R90
WINDOW 123 0 0 Left 0
WINDOW 39 153 18 VRight 0
WINDOW 0 -42 36 VRight 0
WINDOW 3 132 -215 VRight 0
SYMATTR SpiceLine Rser=10
SYMATTR InstName V1
SYMATTR Value PULSE(0 5 0 0.1n 0.1n 0.1u 0.2u)
SYMBOL 74HC00 400 144 R0
SYMATTR InstName X2
SYMBOL voltage -48 80 R0
WINDOW 123 0 0 Left 0
WINDOW 39 0 0 Left 0
SYMATTR InstName V2
SYMATTR Value 5V
SYMBOL 74HC00 528 144 R0
SYMATTR InstName X1
SYMBOL res 96 64 R90
WINDOW 0 0 56 VBottom 0
WINDOW 3 32 56 VTop 0
SYMATTR InstName R1
SYMATTR Value 0.1
SYMBOL ind 192 64 R90
WINDOW 0 5 56 VBottom 0
WINDOW 3 32 56 VTop 0
SYMATTR InstName L1
SYMATTR Value 100n
SYMBOL res 80 224 R90
WINDOW 0 0 56 VBottom 0
WINDOW 3 32 56 VTop 0
SYMATTR InstName R2
SYMATTR Value 0.1
SYMBOL ind 160 224 R90
WINDOW 0 5 56 VBottom 0
WINDOW 3 32 56 VTop 0
SYMATTR InstName L2
SYMATTR Value 100n
TEXT 248 216 Left 0 !.tran 0.4u
