Version 4
SHEET 1 880 684
WIRE 160 128 112 128
WIRE 96 192 80 192
WIRE 32 208 32 128
WIRE 32 208 0 208
WIRE 48 208 32 208
WIRE -80 224 -80 208
WIRE 160 224 160 128
WIRE 160 224 112 224
WIRE 176 224 160 224
WIRE 192 224 176 224
WIRE -208 240 -240 240
WIRE -192 240 -208 240
WIRE 48 240 16 240
WIRE -240 256 -240 240
WIRE 96 256 80 256
WIRE -240 352 -240 336
WIRE -208 352 -240 352
WIRE -240 368 -240 352
WIRE 16 368 16 240
WIRE 16 368 -80 368
WIRE 32 368 16 368
WIRE 176 368 176 224
WIRE -80 384 -80 368
WIRE 16 400 16 368
WIRE -64 464 -80 464
WIRE 16 464 -64 464
WIRE -240 480 -240 448
WIRE -208 480 -240 480
WIRE -192 480 -208 480
WIRE -64 480 -64 464
FLAG -64 480 0
FLAG -80 224 0
FLAG -208 352 0
FLAG -208 240 VCC
FLAG -208 480 Vee
FLAG 96 192 VCC
FLAG 96 256 Vee
FLAG 192 224 out
IOPIN 192 224 Out
SYMBOL OpAmp.Add\\OPAMP1_all 80 160 R0
WINDOW 0 -15 63 Left 0
WINDOW 38 -51 127 Left 0
SYMATTR InstName U1
SYMATTR SpiceModel LM741/NS
SYMBOL res 16 192 R90
WINDOW 0 0 56 VBottom 0
WINDOW 3 32 56 VTop 0
SYMATTR InstName R1
SYMATTR Value 10k
SYMBOL res 128 112 R90
WINDOW 0 0 56 VBottom 0
WINDOW 3 32 56 VTop 0
SYMATTR InstName R2
SYMATTR Value 110k
SYMBOL res 128 352 R90
WINDOW 0 0 56 VBottom 0
WINDOW 3 32 56 VTop 0
SYMATTR InstName R3
SYMATTR Value 10k
SYMBOL res -64 480 R180
WINDOW 0 36 76 Left 0
WINDOW 3 36 40 Left 0
SYMATTR InstName R4
SYMATTR Value 10k
SYMBOL cap 176 352 R90
WINDOW 0 0 32 VBottom 0
WINDOW 3 32 32 VTop 0
SYMATTR InstName C1
SYMATTR Value 330p
SYMBOL cap 32 464 R180
WINDOW 0 22 45 Left 0
WINDOW 3 20 21 Left 0
SYMATTR InstName C2
SYMATTR Value 330p
SYMBOL voltage -240 240 R0
WINDOW 123 0 0 Left 0
WINDOW 39 0 0 Left 0
WINDOW 0 31 38 Left 0
WINDOW 3 33 68 Left 0
SYMATTR InstName V1
SYMATTR Value 10
SYMBOL voltage -240 352 R0
WINDOW 123 0 0 Left 0
WINDOW 39 0 0 Left 0
WINDOW 0 33 58 Left 0
WINDOW 3 33 39 Left 0
SYMATTR InstName V2
SYMATTR Value 10
TEXT 80 456 Left 0 !.tran 0 4m 2m startup
TEXT 232 624 Left 0 !.fourrier 36.66kHz V(out)
