Version 4
SHEET 1 1136 680
WIRE 416 144 0 144
WIRE 912 144 848 144
WIRE 944 144 912 144
WIRE 0 160 0 144
WIRE 1040 224 960 224
WIRE 912 256 848 256
WIRE 960 256 960 224
WIRE 960 256 912 256
WIRE 912 320 848 320
WIRE 944 320 912 320
FLAG 0 240 0
FLAG 912 144 out
FLAG 912 256 order
FLAG 912 320 choice
FLAG 1040 304 0
FLAG 944 400 0
SYMBOL voltage 0 144 R0
WINDOW 123 107 127 Left 2
WINDOW 39 0 0 Left 2
SYMATTR Value2 AC 1
SYMATTR InstName V1
SYMATTR Value PULSE(0 1 0 0 0 10ms 20ms)
SYMBOL res 1024 208 R0
SYMATTR InstName R1
SYMATTR Value 1000k
SYMBOL res 928 304 R0
SYMATTR InstName R2
SYMATTR Value 1000k
SYMBOL addon\\filters\\Filter_LowPass 688 144 R0
SYMATTR SpiceModel Butterworth
SYMATTR SpiceLine2 G=1 Asc=3 Ap=1 As=40 N=0
SYMATTR SpiceLine fs1=500 fp1=432 fp2=0 fs2=0
SYMATTR InstName U1
TEXT -32 264 Left 2 !;tran 100ms
TEXT 72 208 Left 2 !.ac dec 100 100 4000
