Version 4
SHEET 1 880 680
WIRE -144 144 -176 144
WIRE 320 144 224 144
WIRE 336 144 320 144
WIRE -304 160 -416 160
WIRE -224 160 -304 160
WIRE -144 160 -144 144
WIRE -64 160 -144 160
WIRE -16 160 -64 160
WIRE 96 160 64 160
WIRE 112 160 96 160
WIRE 176 160 112 160
WIRE 112 176 112 160
WIRE 16 240 16 208
WIRE 176 240 176 208
WIRE 176 240 112 240
WIRE 16 256 16 240
WIRE 112 256 112 240
WIRE 16 352 16 336
FLAG 16 352 0
FLAG 112 256 0
FLAG -416 240 0
FLAG -304 160 in
FLAG 96 160 outs
FLAG -224 208 0
FLAG -176 224 0
FLAG 224 224 0
FLAG 320 144 out
FLAG -64 160 ins
FLAG 16 240 clk
SYMBOL sw_all -32 160 R270
SYMATTR InstName U1
SYMBOL voltage 16 240 R0
WINDOW 123 0 0 Left 0
WINDOW 39 0 0 Left 0
SYMATTR InstName V1
SYMATTR Value PULSE(0 5 0 10p 10p 1n 20u)
SYMBOL cap 96 176 R0
SYMATTR InstName C1
SYMATTR Value 100p
SYMBOL voltage -416 144 R0
WINDOW 123 0 0 Left 0
WINDOW 39 24 132 Left 0
SYMATTR SpiceLine Rser=1k
SYMATTR InstName V2
SYMATTR Value SINE(2.5 2.5 10k 0 0 0 1)
SYMBOL e -176 128 R0
SYMATTR InstName E1
SYMATTR Value 1
SYMBOL e 224 128 R0
SYMATTR InstName E2
SYMATTR Value 1
TEXT -448 504 Left 0 !.tran 40m
