Version 4
SHEET 1 880 680
WIRE -208 160 -432 160
WIRE 240 160 224 160
WIRE 272 160 240 160
WIRE 288 160 272 160
FLAG -432 240 0
FLAG 272 160 out
SYMBOL voltage -432 144 R0
WINDOW 123 -125 16 Left 0
WINDOW 39 0 0 Left 0
WINDOW 0 32 43 Left 0
WINDOW 3 -125 -12 Left 0
SYMATTR Value2 AC 1
SYMATTR InstName V1
SYMATTR Value PULSE(0 5 0 1n 1n 2m 4m)
SYMBOL filtre_num\\IIR 48 128 R0
SYMATTR InstName U2
SYMATTR Value2 a1=0.942 a2=-0.333 a3=0 a4=0 a5=0
SYMATTR SpiceLine b0=0.0976  b1=0.195 b2=0.0976 b3=0  b4=0 b5=0
TEXT -384 232 Left 0 !.tran 4m
