Version 4
SHEET 1 908 680
WIRE 400 208 400 192
WIRE 400 208 304 208
WIRE -272 224 -464 224
WIRE -128 224 -128 208
WIRE -128 224 -272 224
WIRE -464 320 -464 304
FLAG -464 320 0
FLAG 400 192 out
FLAG -272 224 in1
SYMBOL voltage -464 208 R0
WINDOW 123 -118 96 Left 2
WINDOW 39 0 0 Left 2
WINDOW 3 -181 57 Left 2
SYMATTR Value2 AC 1
SYMATTR Value PULSE(0 1 0 1n 1n 1m 2m)
SYMATTR InstName V1
SYMBOL FIR 128 176 R0
SYMATTR InstName U2
SYMATTR Value2 a0=-0.04437797081117766 a1=0.15720630359016846 a2=0.27284587128791044 a3=0.3312958857431024 a4=0.27284587128791044
SYMATTR SpiceLine a5=0.15720630359016846 a6=-0.04437797081117766 a7=0 a8=0 a9=0
TEXT -176 504 Left 2 !.tran 20m
TEXT -176 472 Left 2 !;ac dec 1000 10 10k
