*****************************************************************************************
*******Librería de amplificadores operacionales caracterizados en 5 terminales.**********
*para su conveniencia úsela con el símbolo opamp5.sym, ubicado en \sym\Robertugo
*y elija el modelo apropiado desde el editor de propiedades de componentes.
*Reunida por Robertugo_2005.
*****************************************************************************************
* Copyright © Linear Technology Corp. 1998, 1999, 2000, 2001, 2002, 2003, 2004, 2005.  All rights reserved.
*
.subckt level1 1 2 3 4 5
A1 2 1 0 0 0 0 5 0 OTA G={Avol/Rout} ref={Vos} linear Cout={Cout} en={en} enk={enk} in={in} ink={ink} Vhigh=1e308 Vlow=-1e308 Rout={Rout}
R5 2 0 {Rin} noiseless
R6 1 0 {Rin} noiseless
.model C SW(Ron=100 Roff=1T Vt=0 Vh=-1 noiseless)
.param Rout=.1
.param Cout={Avol/GBW/2/pi/Rout}
.model Q SW(Ron=10 Roff=10Meg Vt=0 Vh=-.1 Vser={Rail} ilimit={Ilimit} noiseless)
.param Avol=1Meg GBW=10Meg Slew=10Meg ilimit=25m rail=0 Vos=0
.param en=0 enk=0 in=0 ink=0 Rin=1G
.ends level1
* Copyright © Linear Technology Corp. 1998, 1999, 2000, 2001, 2002, 2003, 2004, 2005.  All rights reserved.
*
.subckt level2 1 2 3 4 5
S1 5 3 N002 5 Q
S2 4 5 5 N002 Q
A1 2 1 0 0 0 0 N002 0 OTA G={Avol/Rout} ref={Vos} Iout={slew*Cout} Cout={Cout} en={en} enk={enk} in={in} ink={ink} Vhigh=1e308 Vlow=-1e308
C3 5 4 1p
C4 3 5 1p
R2 N002 4 {2*Rout} noiseless
R1 3 N002 {2*Rout} noiseless
R3 3 1 {2*Rin} noiseless
R4 3 2 {2*Rin} noiseless
R5 2 4 {2*Rin} noiseless
R6 1 4 {2*Rin} noiseless
G1 0 N002 4 N002 table(0 0 10 {2*slew*Cout})
G2 N002 0 N002 3 table(0 0 10 {2*slew*Cout})
.param Rout=100Meg
.param Cout={Avol/GBW/2/pi/Rout}
.model Q SW(Ron=10 Roff=10Meg Vt=0 Vh=-.1 Vser={Rail} ilimit={Ilimit} noiseless)
.param Avol=1Meg GBW=10Meg Slew=10Meg ilimit=25m rail=0 Vos=0
.param en=0 enk=0 in=0 ink=0 Rin=500Meg
.ends level2
* Copyright © Linear Technology Corp. 1998, 1999, 2000, 2001, 2002, 2003, 2004, 2005.  All rights reserved.
*
.subckt level3a 1 2 3 4 5
S1 5 3 N002 5 Q
S2 4 5 5 N002 Q
A1 2 1 0 0 0 0 N003 0 OTA G={Avol/Rout} ref={Vos} Iout={slew*Cout} Cout={Cout} en={en} enk={enk} in={in} ink={ink} Vhigh=1e308 Vlow=-1e308
C3 5 4 1p
C4 3 5 1p
R3 3 2 {2*Rin} noiseless
G1 0 N002 N003 0 {1/Rout}
R2 N002 0 {Rout} noiseless
C1 N002 0 {X*Cout/Avol}
R4 3 1 {2*Rin} noiseless
R5 1 4 {2*Rin} noiseless
R6 2 4 {2*Rin} noiseless
G2 0 N003 4 N003 table(0 0 10 {2*slew*Cout})
G3 N003 0 N003 3 table(0 0 10 {2*slew*Cout})
R1 N003 4 {2*Rout} noiseless
R7 3 N003 {2*Rout} noiseless
.param Rout=100Meg
.param Cout={Avol/GBW/2/pi/Rout}
.model Q SW(Ron=10 Roff=10Meg Vt=0 Vh=-.1 Vser={Rail} ilimit={Ilimit} noiseless)
.param Avol=1Meg GBW=10Meg Slew=10Meg rail=0 Vos=0 ilimit=25m
.param en=0 enk=0 in=0 ink=0 phimargin=45 Rin=500Meg
.param X table(phimargin,29.4,3.5,32.1,2.9,33.8,2.6,35.8,2.3,38.1,2,40.9,1.7,43.2,1.5,45.9,1.3,49.2,1.1,53.2,0.9,58.2,0.7,64.7,0.5,73,0.3,86.1,0.05)
.ends level3a
* Copyright © Linear Technology Corp. 1998, 1999, 2000, 2001, 2002, 2003, 2004, 2005.  All rights reserved.
*
.subckt level3b 1 2 3 4 5
S1 5 3 N002 5 Q
S2 4 5 5 N002 Q
A1 2 1 0 0 0 0 N003 0 OTA G={Avol/Rout} ref={Vos} Iout={slew*Cout} Cout={Cout} en={en} enk={enk} in={in} ink={ink} Vhigh=1e308 Vlow=-1e308
C3 5 4 1p
C4 3 5 1p
R3 3 2 {2*Rin} noiseless
R4 3 1 {2*Rin} noiseless
R5 1 4 {2*Rin} noiseless
R6 2 4 {2*Rin} noiseless
G2 0 N002 N007 0 10µ
R9 0 N002 100K noiseless
G1 0 N008 N003 0 {2/Rz}
C1 N008 0 {.768*Cd}
L1 N008 N009 41.2µ
R1 N008 0 {Rz} noiseless
R2 N007 0 {Rz} noiseless
L2 N009 N010 23.8µ
L3 N010 N007 11.04µ
C2 N009 0 {.294*Cd}
C5 N010 0 {.178*Cd}
C6 N007 0 {.0375*Cd}
G3 0 N003 4 N003 table(0 0 10 {2*slew*Cout})
G4 N003 0 N003 3 table(0 0 10 {2*slew*Cout})
R7 3 N003 {2*Rout} noiseless
R8 N003 4 {2*Rout} noiseless
.param Rout=100Meg
.param Cout={Avol/GBW/2/pi/Rout}
.model Q SW(Ron=10 Roff=10Meg Vt=0 Vh=-.1 Vser={Rail} ilimit={Ilimit} noiseless)
.param Avol=1Meg GBW=10Meg Slew=10Meg rail=0 Vos=0 ilimit=25m
.param en=0 enk=0 in=0 ink=0 phimargin=45 Rin=500Meg
.param delay=(90-MIN(phimargin,89))/360/GBW
.param Rz=sqrt(100u/Cd)
.param Cd=delay*delay/100u
.ends level3b
*
.SUBCKT xopps in out psp psm vgnd
* Additional quiescent current if needed.
* Example:  X1 xopps ....  IQ=1m
.PARAM IQ=1p
V1 in out 0
G1 psp vgnd VALUE={if((I(V1)>0),(I(V1)+IQ),IQ)}
G2 vgnd psm VALUE={if((I(V1)<0),(-I(V1)+IQ),IQ)}
.ends


*//////////////////////////////////////////////////////////////////////
* (C) National Semiconductor, Inc.
* Models developed and under copyright by:
* National Semiconductor, Inc.

*/////////////////////////////////////////////////////////////////////
* Legal Notice: This material is intended for free software support.
* The file may be copied, and distributed; however, reselling the
*  material is illegal

*////////////////////////////////////////////////////////////////////
* For ordering or technical information on these models, contact:
* National Semiconductor's Customer Response Center
*                 7:00 A.M.--7:00 P.M.  U.S. Central Time
*                                (800) 272-9959
* For Applications support, contact the Internet address:
*  amps-apps@galaxy.nsc.com
* ///////////////////////////////////////////////////////////////////
* User Notes:
*
* 1. Input resistance (Rin) for these JFET op amps is 1TOhm.  Rin is
*    modeled by assuming the option GMIN=1TOhm.  If a different (non-
*    default) GMIN value is needed, users may recalculate as follows:
*    Rin=(R1||GMIN+R2||GMIN), where R1=R2,
*    to maintain a consistent Rin model.

*//////////////////////////////////////////////////////////
*LF353 Wide Bandwidth Dual JFET-Input OP-AMP MACRO-MODEL
*//////////////////////////////////////////////////////////
*
* connections:    non-inverting input
*                 |   inverting input
*                 |   |   positive power supply
*                 |   |   |   negative power supply
*                 |   |   |   |   output
*                 |   |   |   |   |
*                 |   |   |   |   |
.SUBCKT LF353/NS  1   2  99  50  28
*
*Features:
*Low supply current =                1.8mA
*Wide bandwidth =                     4MHz
*High slew rate =                   13V/uS
*Low offset voltage =                 10mV
*
*NOTE: Model is for single device only and simulated
*      supply current is 1/2 of total device current.
*
****************INPUT STAGE**************
*
IOS 2 1 25P
*^Input offset current
R1 1 3 1E12
R2 3 2 1E12
I1 99 4 100U
J1 5 2 4 JX
J2 6 7 4 JX
R3 5 50 20K
R4 6 50 20K
*Fp2=12 MHz
C4 5 6 3.31573E-13
*
***********COMMON MODE EFFECT***********
*
I2 99 50 1.7MA
*^Quiescent supply current
EOS 7 1 POLY(1) 16 49 5E-3 1
*Input offset voltage.^
R8 99 49 50K
R9 49 50 50K
*
*********OUTPUT VOLTAGE LIMITING********
V2 99 8 2.13
D1 9 8 DX
D2 10 9 DX
V3 10 50 2.13
*
**************SECOND STAGE**************
*
EH 99 98 99 49 1
F1 9 98 POLY(1) VA3 0 0 0 1.0985E7
G1 98 9 5 6 1E-3
R5 98 9 100MEG
VA3 9 11 0
*Fp1=40.3 HZ
C3 98 11 39.493P
*
***************POLE STAGE***************
*
*Fp3=42 MHz
G3 98 15 9 49 1E-6
R12 98 15 1MEG
C5 98 15 3.7894E-15
*
*********COMMON-MODE ZERO STAGE*********
*
G4 98 16 3 49 1E-8
L2 98 17 31.831M
R13 17 16 1K
*
**************OUTPUT STAGE**************
*
F6  99 50 VA7 1
F5  99 23 VA8 1
D5  21 23 DX
VA7 99 21 0
D6  23 99 DX
E1  99 26 99 15 1
VA8 26 27 0
R16 27 28 35
V5  28 25 0.1V
D4  25 15 DX
V4  24 28 0.1V
D3  15 24 DX
*
***************MODELS USED**************
*
.MODEL DX D(IS=1E-15)
.MODEL JX PJF(BETA=1.25E-5 VTO=-2.00 IS=50E-12)
*
.ENDS
*$



*//////////////////////////////////////////////////////////
*LF357 Monolithic JFET-Input OP-AMP MACRO-MODEL
*//////////////////////////////////////////////////////////
*
* connections: non-inverting input
*              |   inverting input
*              |   |   positive power supply
*              |   |   |   negative power supply
*              |   |   |   |   output
*              |   |   |   |   |
*              |   |   |   |   |
.SUBCKT LF357  1   2  99  50  28
*
*Features:
*Low input bias current =             30pA
*Low input offset current =            3pA
*High input impedance =              1Tohm
*Low input offset voltage =            1mV
*
****************INPUT STAGE**************
*
IOS 2 1 3P
*^Input offset current
R1 1 3 1E12
R2 3 2 1E12
I1 99 4 100U
J1 5 2 4 JX
J2 6 7 4 JX
R3 5 50 20K
R4 6 50 20K
*Fp2=12 MHz
C4 5 6 3.31573E-13
*
***********COMMON MODE EFFECT***********
*
I2 99 50 4.65MA
*^Quiescent supply current
EOS 7 1 POLY(1) 16 49 3E-3 1
*Input offset voltage.^
R8 99 49 50K
R9 49 50 50K
*
*********OUTPUT VOLTAGE LIMITING********
V2 99 8 2.63
D1 9 8 DX
D2 10 9 DX
V3 10 50 2.63
*
**************SECOND STAGE**************
*
EH 99 98 99 49 1
F1 9 98 POLY(1) VA3 0 0 0 8.1291E7
G1 98 9 5 6 2E-3
R5 98 9 100MEG
VA3 9 11 0
*Fp1=224 HZ
C3 98 11 7.10513P
*
***************POLE STAGE***************
*
*Fp3=42 MHz
G3 98 15 9 49 1E-6
R12 98 15 1MEG
C5 98 15 8.3766E-15
*
*********COMMON-MODE ZERO STAGE*********
*
G4 98 16 3 49 1E-8
L2 98 17 530.52M
R13 17 16 1K
*
**************OUTPUT STAGE**************
*
F6  99 50 VA7 1
F5  99 23 VA8 1
D5  21 23 DX
VA7 99 21 0
D6  23 99 DX
E1  99 26 99 15 1
VA8 26 27 0
R16 27 28 25
V5  28 25 0.1V
D4  25 15 DX
V4  24 28 0.1V
D3  15 24 DX
*
***************MODELS USED**************
*
.MODEL DX D(IS=1E-15)
.MODEL JX PJF(BETA=1.25E-5 VTO=-2.00 IS=30E-12)
*
.ENDS


*//////////////////////////////////////////////////////////////////////
* (C) National Semiconductor, Inc.
* Models developed and under copyright by:
* National Semiconductor, Inc.

*/////////////////////////////////////////////////////////////////////
* Legal Notice: This material is intended for free software support.
* The file may be copied, and distributed; however, reselling the
*  material is illegal

*////////////////////////////////////////////////////////////////////
* For ordering or technical information on these models, contact:
* National Semiconductor's Customer Response Center
*                 7:00 A.M.--7:00 P.M.  U.S. Central Time
*                                (800) 272-9959
* For Applications support, contact the Internet address:
*  amps-apps@galaxy.nsc.com
* ///////////////////////////////////////////////////////////////////
* User Notes:
*
* 1. Input resistance (Rin) for these JFET op amps is 1TOhm.  Rin is
*    modeled by assuming the option GMIN=1TOhm.  If a different (non-
*    default) GMIN value is needed, users may recalculate as follows:
*    Rin=(R1||GMIN+R2||GMIN), where R1=R2,
*    to maintain a consistent Rin model.

*//////////////////////////////////////////////////////////
*LF412 LOW OFFSET, LOW DRIFT DUAL JFET INPUT OP-AMP MODEL
*//////////////////////////////////////////////////////////
*
* connections:    non-inverting input
*                 |   inverting input
*                 |   |   positive power supply
*                 |   |   |   negative power supply
*                 |   |   |   |   output
*                 |   |   |   |   |
*                 |   |   |   |   |
.SUBCKT LF412/NS  1   2  99  50  28
*
*Features:
*Fast settling time (.01%) =           2uS
*High bandwidth =                     3MHz
*High slew rate =                   10V/uS
*Low offset voltage =                  1mV
*Low supply current =                1.8mA
*NOTE: Model is for single device only and simulated
*      supply current is 1/2 of total device current.
*
****************INPUT STAGE**************
*
IOS 2 1 25.0P
*^Input offset current
CI1 1 0 3P
CI2 2 0 3P
R1 1 3 1E12
R2 3 2 1E12
I1 99 4 1.0M
J1 5 2 4 JX
J2 6 7 4 JX
R3 5 50 650
R4 6 50 650
*Fp2=28 MHZ
C4 5 6 4.372P
*
***********COMMON MODE EFFECT***********
*
I2 99 50 800UA
*^Quiescent supply current
EOS 7 1 POLY(1) 16 49 1E-3 1
*Input offset voltage.^
R8 99 49 80K
R9 49 50 80K
*
*********OUTPUT VOLTAGE LIMITING********
V2 99 8 2.13
D1 9 8 DX
D2 10 9 DX
V3 10 50 2.13
*
**************SECOND STAGE**************
*
EH 99 98 99 49 1
G1 98 9 5 6 20E-3
R5 98 9 10MEG
VA3 9 11 0
*Fp1=18 HZ
C3 98 11 857.516P
*
***************POLE STAGE***************
*
*Fp=30 MHz
G3 98 15 9 49 1E-6
R12 98 15 1MEG
C5 98 15 5.305E-15
*
*********COMMON-MODE ZERO STAGE*********
*
G4 98 16 3 49 1E-8
L2 98 17 144.7M
R13 17 16 1K
*
**************OUTPUT STAGE**************
*
F6  99 50 VA7 1
F5  99 23 VA8 1
D5  21 23 DX
VA7 99 21 0
D6  23 99 DX
E1  99 26 99 15 1
VA8 26 27 0
R16 27 28 50
V5  28 25 0.646V
D4  25 15 DX
V4  24 28 0.646V
D3  15 24 DX
*
***************MODELS USED**************
*
.MODEL DX D(IS=1E-15)
.MODEL JX PJF(BETA=1.183E-3 VTO=-.65 IS=50E-12)
*
.ENDS
*$

*//////////////////////////////////////////////////////////
*LM118 OPERATIONAL AMPLIFIER MACRO-MODEL
*//////////////////////////////////////////////////////////
*
* connections:      non-inverting input
*                   |   inverting input
*                   |   |   positive power supply
*                   |   |   |   negative power supply
*                   |   |   |   |   output
*                   |   |   |   |   |
*                   |   |   |   |   |
.SUBCKT LM118/NS    1   2  99  50  28
*
*Features:
*Internal frequency compensation
*High bandwidth =                    15MHz
*Minimum slew rate =                50V/uS
*Low bias current =                  250nA
*Wide supply range =         +-5V to +-20V
*
****************INPUT STAGE**************
*
IOS 2 1 6N
*^Input offset current
R1 1 3 1.5MEG
R2 3 2 1.5MEG
I1 4 50 100U
R3 99 5 517
R4 99 6 517
Q1 5 2 4 QX
Q2 6 7 4 QX
*Fp2=25 MHz
C4 5 6 6.1569P
*
***********COMMON MODE EFFECT***********
*
I2 99 50 4.9M
*^Quiescent supply current
EOS 7 1 POLY(1) 16 49 4E-3 1
*Input offset voltage.^
R8 99 49 80.2K
R9 49 50 80.2K
*
*********OUTPUT VOLTAGE LIMITING********
V2 99 8 2.63
D1 9 8 DX
D2 10 9 DX
V3 10 50 2.63
*
**************SECOND STAGE**************
*
EH 99 98 99 49 1
G1 98 9 POLY(1) 5 6 0 3.0967E-4 0 596.674E-3
*Fp1=115 Hz
R5 98 9 9.6877G
C3 98 9 1.4286P
*
************POLE/ZERO STAGE*************
*
*Fp=300 KHz, Fz=600 KHz
G2 98 13 9 49 1E-6
R10 98 13 1MEG
R11 98 14 1MEG
C6 14 13 2.6526E-13
*
***************POLE STAGE***************
*
*Fp=55 MHz
G3 98 15 13 49 1E-6
R12 98 15 1MEG
C5 98 15 2.8937E-15
*
*********COMMON-MODE ZERO STAGE*********
*
*Fpcm=3 KHz
G4 98 16 3 49 1E-8
L2 98 17 53.1M
R13 17 16 1K
*
**************OUTPUT STAGE**************
*
F6 50 99 POLY(1) V6 200U 1
E1 99 23 99 15 1
R16 24 23 30
D5 26 24 DX
V6 26 22 .63V
R17 23 25 30
D6 25 27 DX
V7 22 27 .63V
C9 23 22 100P
V5 22 21 0.2V
D4 21 15 DX
V4 20 22 0.2V
D3 15 20 DX
L3 22 28 100P
RL3 22 28 100K
*
***************MODELS USED**************
*
.MODEL DX D(IS=1E-15)
.MODEL QX NPN(BF=333.333)
*
.ENDS
*
*-----------------------------------------------------------------------------
* connections:   non-inverting input
*                | inverting input
*                | | positive power supply
*                | | | negative power supply
*                | | | | output
*                | | | | |
.subckt LM118    1 2 3 4 5
*
  c1   11 12 2.887E-12
  c2    6  7 20.00E-12
  dc    5 53 dy
  de   54  5 dy
  dlp  90 91 dx
  dln  92 90 dx
  dp    4  3 dx
  egnd 99  0 poly(2),(3,0),(4,0) 0 .5 .5
  fb    7 99 poly(5) vb vc ve vlp vln 0 636.5E3 -1E3 1E3 600E3 -600E3
  ga    6  0 11 12 12.57E-3
  gcm   0  6 10 99 125.7E-9
  iee  10  4 dc 1.400E-3
  hlim 90  0 vlim 1K
  q1   11  2 13 qx
  q2   12  1 14 qx
  r2    6  9 100.0E3
  rc1   3 11 79.57
  rc2   3 12 79.57
  re1  13 10 42.61
  re2  14 10 42.61
  ree  10 99 142.8E3
  ro1   8  5 50
  ro2   7 99 25
  rp    3  4 9.678E3
  vb    9  0 dc 0
  vc    3 53 dc 2
  ve   54  4 dc 2
  vlim  7  8 dc 0
  vlp  91  0 dc 22
  vln   0 92 dc 22
.model dx D(Is=800.0E-18 Rs=1)
.model dy D(Is=800.00E-18 Rs=1m Cjo=10p)
.model qx NPN(Is=800.0E-18 Bf=5.833E3)
.ends
*
.SUBCKT LM118/LT 3 2 7 4 6
* INPUT
RC1 7 80 7.074E+02
RC2 7 90 7.074E+02
Q1 80 2 10 QM1
Q2 90 3 11 QM1
*
C1 80 91 300E-12
RXC1 91 90 1E3
CXC1 91 90 15E-12
C2 1 8 5.000E-12
*
RB1 2 102 1.0000E+00
RB2 3 103 1.0000E+00
DDM1 102 104 DM2
VZ1 104 103 5.5
DDM2 103 105 DM2
VZ2 105 102 5.5
RE1 10 12 6.209E+02
RE2 11 12 6.209E+02
IEE 12 4 6.000E-04
RE 12 0 3.332E+05
CE 12 0 2.632E-13
*
GCM 0 8 12 0 1.414E-08
GA 8 0 80 90 1.414E-03
R2 8 0 1.000E+05
GB 1 0 8 0 5.318E+01
RO2 1 0 7.4000E+01
*
RS 1 6 1
ECL 18 0 1 6 3.172E+01
GCL 0 8 20 0 1
RCL 20 0 1E3
D1 18 20 DM1
D2 20 18 DM1
*
D3A 131 70 DM3
D3B 13 131 DM3
GPL 0 8 70 7 1
VC 13 6 3.6473
RPLA 7 70 1E4
RPLB 7 131 1E5
D4A 60 141 DM3
D4B 141 14 DM3
GNL 0 8 60 4 1
VE 6 14 3.6473
RNLA 60 4 1E4
RNLB 141 4 1E5
*
IP 7 4 4.400E-03
DSUB 4 7 DM2
* MODELS
.MODEL QM1 NPN (IS=8.0000E-16 BF=2.4390E+03)
.MODEL QM2 NPN (IS=8.6435E-16 BF=2.5641E+03)
*
.MODEL DM1 D (IS=1.000E-19)
.MODEL DM2 D (IS=8.000E-16)
.MODEL DM3 D (IS=1.000E-20)
.ENDS LM118/LT
*
.subckt LM124    1 2 3 4 5
c1 11 12 2.887E-12
c2 6 7 30.00E-12
dc 5 53 dy
de 54 5 dy
dlp 90 91 dx
dln 92 90 dx
dp 4 3 dx
egnd 99  0 poly(2),(3,0),(4,0) 0 .5 .5
fb 7 99 poly(5) vb vc ve vlp vln 0 21.22E6 -1E3 1E3 20E6 -20E6
ga 6 0 11 12 188.5E-6
gcm 0 6 10 99 10.60E-9
iee 3 10 dc 15.09E-6
hlim 90 0 vlim 1K
q1 11 2 13 qx
q2 12 1 14 qx
r2 6 9 100.0E3
rc1 4 11 5.305E3
rc2 4 12 5.305E3
re1 13 10 1.845E3
re2 14 10 1.845E3
ree 10 99 13.25E6
ro1 8 5 50
ro2 7 99 25
rp 3 4 9.082E3
vb 9 0 dc 0
vc 3 53 dc 1.500
ve 54 4 dc 0.65
vlim 7 8 dc 0
vlp 91 0 dc 40
vln 0 92 dc 40
.model dx D(Is=800.0E-18 Rs=1)
.model dy D(Is=800.00E-18 Rs=1m Cjo=10p)
.model qx PNP(Is=800.0E-18 Bf=166.7)
.ends
*
*LM358_ST
* WARNING : please consider following remarks before usage
*
* 1) All models are a tradeoff between accuracy and complexity (ie. simulation
*    time).
* 2) Macromodels are not a substitute to breadboarding, they rather confirm the
*    validity of a design approach and help to select surrounding component values.
*
* 3) A macromodel emulates the NOMINAL performance of a TYPICAL device within
*    SPECIFIED OPERATING CONDITIONS (ie. temperature, supply voltage, etc.).
*    Thus the macromodel is often not as exhaustive as the datasheet, its goal
*    is to illustrate the main parameters of the product.
*
* 4) Data issued from macromodels used outside of its specified conditions
*    (Vcc, Temperature, etc) or even worse: outside of the device operating
*    conditions (Vcc, Vicm, etc) are not reliable in any way.
** Standard Linear Ics Macromodels, 1993.
** CONNECTIONS :
* 1 INVERTING INPUT
* 2 NON-INVERTING INPUT
* 3 OUTPUT
* 4 POSITIVE POWER SUPPLY
* 5 NEGATIVE POWER SUPPLY
.SUBCKT LM158 1 3 2 4 5 ;(analog)
**********************************************************
.MODEL MDTH D IS=1E-8 KF=3.104131E-15 CJO=10F
* INPUT STAGE
CIP 2 5 1.000000E-12
CIN 1 5 1.000000E-12
EIP 10 5 2 5 1
EIN 16 5 1 5 1
RIP 10 11 2.600000E+01
RIN 15 16 2.600000E+01
RIS 11 15 2.003862E+02
DIP 11 12 MDTH 400E-12
DIN 15 14 MDTH 400E-12
VOFP 12 13 DC 0
VOFN 13 14 DC 0
IPOL 13 5 1.000000E-05
CPS 11 15 3.783376E-09
DINN 17 13 MDTH 400E-12
VIN 17 5 0.000000e+00
DINR 15 18 MDTH 400E-12
VIP 4 18 2.000000E+00
FCP 4 5 VOFP 3.400000E+01
FCN 5 4 VOFN 3.400000E+01
FIBP 2 5 VOFN 2.000000E-03
FIBN 5 1 VOFP 2.000000E-03
* AMPLIFYING STAGE
FIP 5 19 VOFP 3.600000E+02
FIN 5 19 VOFN 3.600000E+02
RG1 19 5 3.652997E+06
RG2 19 4 3.652997E+06
CC 19 5 6.000000E-09
DOPM 19 22 MDTH 400E-12
DONM 21 19 MDTH 400E-12
HOPM 22 28 VOUT 7.500000E+03
VIPM 28 4 1.500000E+02
HONM 21 27 VOUT 7.500000E+03
VINM 5 27 1.500000E+02
EOUT 26 23 19 5 1
VOUT 23 5 0
ROUT 26 3 20
COUT 3 5 1.000000E-12
DOP 19 25 MDTH 400E-12
VOP 4 25 2.242230E+00
DON 24 19 MDTH 400E-12
VON 24 5 7.922301E-01
.ENDS
*
*
.subckt LM224    1 2 3 4 5
x1 1 2 3 4 5 LM124
.ends
*
*
.subckt LM324    1 2 3 4 5
c1   11 12 2.887E-12
c2    6  7 30.00E-12
dc    5 53 dy
de   54  5 dy
dlp  90 91 dx
dln  92 90 dx
dp    4  3 dx
egnd 99  0 poly(2),(3,0),(4,0) 0 .5 .5
fb    7 99 poly(5) vb vc ve vlp vln 0 21.22E6 -1E3 1E3 20E6 -20E6
fpos a 0 vlim 1
w2 3 a vlim sw2
.model sw2 iswitch (ron=1 ion=0 ioff=-1u roff=10meg)
w1 a 0 vlim sw1
.model sw1 iswitch (roff=10meg ioff=0 ion=-1u ron=1)
fneg 0 b vlim -1
w3 4 b vlim sw3
.model sw3 iswitch (ron=1 ion=-1u ioff=0 roff=10meg)
w4 b 0 vlim sw4
.model sw4 iswitch (roff=10meg ioff=-1u ion=0 ron=1)
ga  6 0 11 12 188.5E-6
gcm 0 6 10 99 59.61E-9
iee 3 10 dc 15.09E-6
hlim 90 0 vlim 1K
q1 11 2 13 qx
q2 12 1 14 qx
r2 6 9 100.0E3
rc1 4 11 5.305E3
rc2 4 12 5.305E3
re1 13 10 1.845E3
re2 14 10 1.845E3
ree 10 99 13.25E6
ro1 8 5 50
ro2 7 99 25
rp 3 4 9.082E3
vb 9 0 dc 0
vc 3 53 dc 1.500
ve 54 4 dc 0.822
vlim 7 8 dc 0
vlp 91 0 dc 40
vln 0 92 dc 40
.model dx D(Is=800.0E-18 Rs=1)
.model dy D(Is=800.00E-18 Rs=1m Cjo=10p)
.model qx PNP(Is=800.0E-18 Bf=166.7)
.ends
*
.SUBCKT XLM324 1 2 3 4 5
C1 11 12 5.544E-12
C2 6 7 20E-12
DC 5 53 DX
DE 54 5 DX
DLP 90 91 DX
DLN 92 90 DX
DP 4 3 DX
BGND 99 0 V=V(3)*.5 + V(4)*.5
BB 7 99 I=I(VB)*15.91E6 - I(VC)*20E6 + I(VE)*20E6 +
+ I(VLP)*20E6 - I(VLN)*20E6
GA 6 0 11 12 125.7E-6
GCM 0 6 10 99 7.067E-9
IEE 3 10 DC 10.04E-6
HLIM 90 0 VLIM 1K
Q1 11 2 13 QX
Q2 12 1 14 QX
R2 6 9 100E3
RC1 4 11 7.957E3
RC2 4 12 7.957E3
RE1 13 10 2.773E3
RE2 14 10 2.773E3
REE 10 99 19.92E6
RO1 8 5 50
RO2 7 99 50
RP 3 4 30.31E3
VB 9 0 DC 0
VC 3 53 DC 2.1
VE 54 4 DC .6
VLIM 7 8 DC 0
VLP 91 0 DC 40
VLN 0 92 DC 40
.MODEL DX D(IS=800E-18)
.MODEL QX PNP(IS=800E-18 BF=250)
.ENDS
*
.subckt LM358 1 2 3 4 5
*
  X1 1 2 3 4 5 LM324
.ends
*

*//////////////////////////////////////////////////////////////////////
* (C) National Semiconductor, Inc.
* Models developed and under copyright by:
* National Semiconductor, Inc.

*/////////////////////////////////////////////////////////////////////
* Legal Notice: This material is intended for free software support.
* The file may be copied, and distributed; however, reselling the
*  material is illegal

*////////////////////////////////////////////////////////////////////
* For ordering or technical information on these models, contact:
* National Semiconductor's Customer Response Center
*                 7:00 A.M.--7:00 P.M.  U.S. Central Time
*                                (800) 272-9959
* For Applications support, contact the Internet address:
*  amps-apps@galaxy.nsc.com

*//////////////////////////////////////////////////////////
*LM358 DUAL OPERATIONAL AMPLIFIER MACRO-MODEL
*//////////////////////////////////////////////////////////
*
* connections:      non-inverting input
*                   |   inverting input
*                   |   |   positive power supply
*                   |   |   |   negative power supply
*                   |   |   |   |   output
*                   |   |   |   |   |
*                   |   |   |   |   |
.SUBCKT LM358/NS    1   2  99  50  28
*
*Features:
*Eliminates need for dual supplies
*Large DC voltage gain =             100dB
*High bandwidth =                     1MHz
*Low input offset voltage =            2mV
*Wide supply range =       +-1.5V to +-16V
*
*NOTE: Model is for single device only and simulated
*      supply current is 1/2 of total device current.
*      Output crossover distortion with dual supplies
*      is not modeled.
*
****************INPUT STAGE**************
*
IOS 2 1 5N
*^Input offset current
R1 1 3 500K
R2 3 2 500K
I1 99 4 100U
R3 5 50 517
R4 6 50 517
Q1 5 2 4 QX
Q2 6 7 4 QX
*Fp2=1.2 MHz
C4 5 6 128.27P
*
***********COMMON MODE EFFECT***********
*
I2 99 50 75U
*^Quiescent supply current
EOS 7 1 POLY(1) 16 49 2E-3 1
*Input offset voltage.^
R8 99 49 60K
R9 49 50 60K
*
*********OUTPUT VOLTAGE LIMITING********
V2 99 8 1.63
D1 9 8 DX
D2 10 9 DX
V3 10 50 .635
*
**************SECOND STAGE**************
*
EH 99 98 99 49 1
G1 98 9 POLY(1) 5 6 0 9.8772E-4 0 .3459
*Fp1=7.86 Hz
R5 98 9 101.2433MEG
C3 98 9 200P
*
***************POLE STAGE***************
*
*Fp=2 MHz
G3 98 15 9 49 1E-6
R12 98 15 1MEG
C5 98 15 7.9577E-14
*
*********COMMON-MODE ZERO STAGE*********
*
*Fpcm=10 KHz
G4 98 16 3 49 5.6234E-8
L2 98 17 15.9M
R13 17 16 1K
*
**************OUTPUT STAGE**************
*
F6 50 99 POLY(1) V6 300U 1
E1 99 23 99 15 1
R16 24 23 17.5
D5 26 24 DX
V6 26 22 .63V
R17 23 25 17.5
D6 25 27 DX
V7 22 27 .63V
V5 22 21 0.27V
D4 21 15 DX
V4 20 22 0.27V
D3 15 20 DX
L3 22 28 500P
RL3 22 28 100K
*
***************MODELS USED**************
*
.MODEL DX D(IS=1E-15)
.MODEL QX PNP(BF=1.111E3)
*
.ENDS
*
*//////////////////////////////////////////////////////////////////////
* (C) National Semiconductor, Inc.
* Models developed and under copyright by:
* National Semiconductor, Inc.
*
*/////////////////////////////////////////////////////////////////////
* Legal Notice: This material is intended for free software support.
* The file may be copied, and distributed; however, reselling the
*  material is illegal
*
*////////////////////////////////////////////////////////////////////
* For ordering or technical information on these models, contact:
* National Semiconductor's Customer Response Center
*                 7:00 A.M.--7:00 P.M.  U.S. Central Time
*                                (800) 272-9959
* For Applications support, contact the Internet address:
*  amps-apps@galaxy.nsc.com
*
*//////////////////////////////////////////////////////////
*LM358 DUAL OPERATIONAL AMPLIFIER MACRO-MODEL
*//////////////////////////////////////////////////////////
*
* connections:      non-inverting input
*                   |   inverting input
*                   |   |   positive power supply
*                   |   |   |   negative power supply
*                   |   |   |   |   output
*                   |   |   |   |   |
*                   |   |   |   |   |
.SUBCKT LM358/NS_BV 1   2  99  50  28
*
*Features:
*Eliminates need for dual supplies
*Large DC voltage gain =             100dB
*High bandwidth =                     1MHz
*Low input offset voltage =            2mV
*Wide supply range =       +-1.5V to +-16V
*
*NOTE: Model is for single device only and simulated
*      supply current is 1/2 of total device current.
*      Output crossover distortion with dual supplies
*      is not modeled.
*
****************INPUT STAGE**************
*
IOS 2 1 5N
*^Input offset current
R1 1 3 500K
R2 3 2 500K
I1 99 4 100U
R3 5 50 517
R4 6 50 517
Q1 5 2 4 QX
Q2 6 7 4 QX
*Fp2=1.2 MHz
C4 5 6 128.27P
*
***********COMMON MODE EFFECT***********
*
I2 99 50 75U
*^Quiescent supply current
EOS 7 1 POLY(1) 16 49 2E-3 1
*Input offset voltage.^
R8 99 49 60K
R9 49 50 60K
*
*********OUTPUT VOLTAGE LIMITING********
*V2 99 8 1.63
B2 99 8 V=limit(0, V(99,50), 1.63)
BIQ 99 50 I=limit(0.1005m, V(99,50)*0.15m , 0.5m)

D1 9 8 DX
D2 10 9 DX
V3 10 50 .635
*
**************SECOND STAGE**************
*
EH 99 98 99 49 1
G1 98 9 POLY(1) 5 6 0 9.8772E-4 0 .3459
*Fp1=7.86 Hz
R5 98 9 101.2433MEG
C3 98 9 200P
*
***************POLE STAGE***************
*
*Fp=2 MHz
G3 98 15 9 49 1E-6
R12 98 15 1MEG
C5 98 15 7.9577E-14
*
*********COMMON-MODE ZERO STAGE*********
*
*Fpcm=10 KHz
G4 98 16 3 49 5.6234E-8
L2 98 17 15.9M
R13 17 16 1K
*
**************OUTPUT STAGE**************
*
F6 50 99 POLY(1) V6 300U 1
E1 99 23 99 15 1
R16 24 23 17.5
D5 26 24 DX
V6 26 22 .63V
R17 23 25 17.5
D6 25 27 DX
V7 22 27 .63V
V5 22 21 0.27V
D4 21 15 DX
V4 20 22 0.27V
D3 15 20 DX
L3 22 28 500P
RL3 22 28 100K
*
***************MODELS USED**************
.MODEL DX D(IS=1E-15)
.MODEL QX PNP(BF=1.111E3)
*
.ENDS
*
*LM358_OnSemi
* LM358 operational amplifier
* "macromodel" subcircuit
*
* connections:
*    1 -  non-inverting input
*    2 -  inverting input
*    3 -  positive power supply
*    4 -  negative power supply
*    5 -  output
*
.subckt LM358/MC 1 2 3 4 5
c1 11 12 3.000E-12
c2 6 7 6.000E-12
cee 10 99 388.6E-15
dc 5 53 dx
de 54 5 dx
dlp 90 91 dx
dln 92 90 dx
dp 4 3 dx
egnd 99 0 poly(2) (3,0) (4,0) 0 .5 .5
fb 7 99 poly(5) vb vc ve vlp vln 0 48.23E6
+ -50E6 50E6 50E6 -50E6
ga 6 0 11 12 41.47E-6
gcm 0 6 10 99 414.7E-12
iee 3 10 dc 2.543E-6
hlim 90 0 vlim 1K
q1 11 2 13 qx
q2 12 1 14 qx
r2 6 9 100.0E3
rc1 4 11 24.11E3
rc2 4 12 24.11E3
re1 13 10 3.043E3
re2 14 10 3.043E3
ree 10 99 78.65E6
ro1 8 5 50
ro2 7 99 25
rp 3 4 37.62E3
vb 9 0 dc 0
vc 3 53 dc 1.800
ve 54 4 dc .88
vlim 7 8 dc 0
vlp 91 0 dc 40
vln 0 92 dc 40
desd1 1 3 dx
desd2 2 3 dx
.model dx D(Is=800.0E-18)
.model qx PNP(Is=800.0E-18 Bf=32.03)
.ends
*
*//////////////////////////////////////////////////////////
*LM741 OPERATIONAL AMPLIFIER MACRO-MODEL
*//////////////////////////////////////////////////////////
*
* connections:      non-inverting input
*                   |   inverting input
*                   |   |   positive power supply
*                   |   |   |   negative power supply
*                   |   |   |   |   output
*                   |   |   |   |   |
*                   |   |   |   |   |
.SUBCKT LM741/NS    1   2  99  50  28
*
*Features:
*Improved performance over industry standards
*Plug-in replacement for LM709,LM201,MC1439,748
*Input and output overload protection
*
****************INPUT STAGE**************
*
IOS 2 1 20N
*^Input offset current
R1 1 3 250K
R2 3 2 250K
I1 4 50 100U
R3 5 99 517
R4 6 99 517
Q1 5 2 4 QX
Q2 6 7 4 QX
*Fp2=2.55 MHz
C4 5 6 60.3614P
*
***********COMMON MODE EFFECT***********
*
I2 99 50 1.6MA
*^Quiescent supply current
EOS 7 1 POLY(1) 16 49 1E-3 1
*Input offset voltage.^
R8 99 49 40K
R9 49 50 40K
*
*********OUTPUT VOLTAGE LIMITING********
V2 99 8 1.63
D1 9 8 DX
D2 10 9 DX
V3 10 50 1.63
*
**************SECOND STAGE**************
*
EH 99 98 99 49 1
G1 98 9 5 6 2.1E-3
*Fp1=5 Hz
R5 98 9 95.493MEG
C3 98 9 333.33P
*
***************POLE STAGE***************
*
*Fp=30 MHz
G3 98 15 9 49 1E-6
R12 98 15 1MEG
C5 98 15 5.3052E-15
*
*********COMMON-MODE ZERO STAGE*********
*
*Fpcm=300 Hz
G4 98 16 3 49 3.1623E-8
L2 98 17 530.5M
R13 17 16 1K
*
**************OUTPUT STAGE**************
*
F6 50 99 POLY(1) V6 450U 1
E1 99 23 99 15 1
R16 24 23 25
D5 26 24 DX
V6 26 22 0.65V
R17 23 25 25
D6 25 27 DX
V7 22 27 0.65V
V5 22 21 0.18V
D4 21 15 DX
V4 20 22 0.18V
D3 15 20 DX
L3 22 28 100P
RL3 22 28 100K
*
***************MODELS USED**************
*
.MODEL DX D(IS=1E-15)
.MODEL QX NPN(BF=625)
*
.ENDS
*
*
*-----------------------------------------------------------------------------
* Macromodelo de amplificador operacional 741
* conexiones:    non-inverting input
*                | inverting input
*                | | positive power supply