Version 4
SHEET 1 880 680
WIRE 224 -48 -16 -48
WIRE -16 -32 -16 -48
WIRE 224 48 224 -48
WIRE -16 64 -16 48
WIRE 96 128 -256 128
WIRE 384 128 352 128
WIRE -256 144 -256 128
WIRE 384 192 384 128
WIRE 384 192 352 192
WIRE 432 192 384 192
WIRE -256 272 -256 224
WIRE 96 272 -16 272
WIRE 384 272 352 272
WIRE -16 288 -16 272
WIRE -16 384 -16 368
WIRE 224 384 224 336
WIRE 384 384 384 272
FLAG -16 64 0
FLAG -256 272 0
FLAG -16 384 0
FLAG 224 384 0
FLAG 384 384 0
FLAG 432 192 out
FLAG -256 128 in
SYMBOL voltage -256 128 R0
WINDOW 3 -187 185 Left 2
WINDOW 123 24 132 Left 2
WINDOW 39 0 0 Left 2
SYMATTR Value PULSE(0 4 100u 1u 1u 100u 200u)
SYMATTR Value2 AC 1
SYMATTR InstName V1
SYMBOL voltage -16 272 R0
SYMATTR InstName V2
SYMATTR Value 5
SYMBOL voltage -16 -48 R0
SYMATTR InstName V3
SYMATTR Value 12
SYMBOL addon\\Opamps\\Instrumentation\\INA132 224 192 R0
SYMATTR InstName U1
TEXT -424 -80 Left 2 !.tran 500u
TEXT -424 -8 Left 2 ;.ac dec 100 1k 1MEG
TEXT -424 24 Left 2 ;.noise V(out) V1 dec 100 1 1MEG
TEXT -424 -48 Left 2 !.options plotwinsize=0
