Version 4
SHEET 1 904 680
WIRE 16 128 0 128
WIRE 160 128 96 128
WIRE 512 192 416 192
WIRE 512 208 512 192
WIRE 416 240 416 192
WIRE 0 256 0 128
WIRE 0 256 -48 256
WIRE 16 256 0 256
WIRE 416 256 416 240
WIRE 160 272 160 128
WIRE 160 272 80 272
WIRE 240 272 224 272
WIRE 272 272 240 272
WIRE 16 288 -16 288
WIRE 240 288 240 272
WIRE 592 288 512 288
WIRE 704 288 592 288
WIRE 512 304 512 288
WIRE 48 336 48 304
WIRE -144 352 -240 352
WIRE -112 352 -144 352
WIRE -16 352 -16 288
WIRE -16 352 -48 352
WIRE 416 400 416 336
WIRE 512 400 512 384
WIRE 512 400 416 400
WIRE 416 432 416 400
FLAG 48 336 0
FLAG 416 432 0
FLAG 416 240 Vcc
FLAG 48 240 Vcc
FLAG -240 432 0
FLAG 592 288 Vcc/2
FLAG 272 272 out
FLAG 240 368 0
FLAG -144 352 in
FLAG -16 432 Vcc/2
FLAG -128 256 Vcc/2
SYMBOL OpAmp.Add\\opamp1_all_nat_semi 48 208 R0
WINDOW 38 -29 110 Left 0
SYMATTR InstName U1
SYMBOL voltage 416 240 R0
WINDOW 123 0 0 Left 0
WINDOW 39 0 0 Left 0
SYMATTR InstName V1
SYMATTR Value 12
SYMBOL res -32 240 R90
WINDOW 0 0 56 VBottom 0
WINDOW 3 32 56 VTop 0
SYMATTR InstName R1
SYMATTR Value 2k
SYMBOL res 112 112 R90
WINDOW 0 0 56 VBottom 0
WINDOW 3 32 56 VTop 0
SYMATTR InstName R2
SYMATTR Value 18k
SYMBOL cap -48 336 R90
WINDOW 0 0 32 VBottom 0
WINDOW 3 32 32 VTop 0
SYMATTR InstName C1
SYMATTR Value 1µ
SYMBOL res -32 336 R0
SYMATTR InstName R3
SYMATTR Value 2k
SYMBOL voltage -240 336 R0
WINDOW 0 35 53 Left 0
WINDOW 123 0 0 Left 0
WINDOW 39 0 0 Left 0
SYMATTR InstName V2
SYMATTR Value SINE(0 0.1 1k)
SYMBOL res 496 192 R0
SYMATTR InstName R4
SYMATTR Value 1k
SYMBOL res 496 288 R0
SYMATTR InstName R5
SYMATTR Value 1k
SYMBOL cap 224 256 R90
WINDOW 0 0 32 VBottom 0
WINDOW 3 32 32 VTop 0
SYMATTR InstName C2
SYMATTR Value 10µ
SYMBOL res 224 272 R0
SYMATTR InstName R6
SYMATTR Value 150
TEXT 102 476 Left 0 !.tran 10m
