Version 4
SHEET 1 880 680
WIRE 0 128 -128 128
WIRE 128 128 64 128
WIRE 256 128 192 128
WIRE 304 128 256 128
WIRE -128 160 -128 128
WIRE 96 208 64 208
WIRE 96 224 96 208
WIRE 304 224 304 208
WIRE -128 288 -128 240
WIRE 0 288 -128 288
WIRE 128 288 64 288
WIRE 256 288 256 128
WIRE 256 288 192 288
WIRE -128 304 -128 288
FLAG 304 224 0
FLAG 96 224 0
FLAG -128 304 0
SYMBOL schottky 128 144 R270
WINDOW 0 32 32 VTop 0
WINDOW 3 0 32 VBottom 0
SYMATTR InstName D1
SYMATTR Value 1N5817
SYMATTR Description Diode
SYMATTR Type diode
SYMBOL schottky 128 304 R270
WINDOW 0 32 32 VTop 0
WINDOW 3 0 32 VBottom 0
SYMATTR InstName D2
SYMATTR Value 1N5817
SYMATTR Description Diode
SYMATTR Type diode
SYMBOL res 288 112 R0
SYMATTR InstName R1
SYMATTR Value 1k
SYMBOL voltage -128 144 R0
WINDOW 3 -55 105 Left 0
WINDOW 123 0 0 Left 0
WINDOW 39 0 0 Left 0
SYMATTR Value SINE(0 10 50)
SYMATTR InstName V1
SYMBOL Magnetic\\pp_tranny 32 208 R0
SYMATTR InstName U1
TEXT -160 352 Left 0 !.tran 40ms
