Version 4
SHEET 1 880 680
WIRE 16 32 -48 32
WIRE 160 32 80 32
WIRE 176 32 160 32
WIRE 240 32 176 32
WIRE 352 32 352 16
WIRE 352 32 304 32
WIRE 432 32 352 32
WIRE 560 32 496 32
WIRE 640 32 560 32
WIRE 672 32 640 32
WIRE 176 48 176 32
WIRE 352 48 352 32
WIRE -160 64 -192 64
WIRE -48 64 -48 32
WIRE -48 64 -80 64
WIRE 640 64 640 32
WIRE -192 144 -192 64
WIRE -192 144 -224 144
WIRE -176 144 -192 144
WIRE -48 144 -48 64
WIRE -48 144 -64 144
WIRE -32 144 -48 144
WIRE 16 144 -32 144
WIRE 176 144 176 112
WIRE 176 144 128 144
WIRE 224 144 176 144
WIRE 352 144 352 112
WIRE 352 144 336 144
WIRE -224 160 -224 144
WIRE 176 176 176 144
WIRE 352 176 352 144
WIRE -48 272 -48 144
WIRE 16 272 -48 272
WIRE 144 272 80 272
WIRE 176 272 176 240
WIRE 176 272 144 272
WIRE 240 272 176 272
WIRE 352 272 352 240
WIRE 352 272 304 272
WIRE 432 272 352 272
WIRE 560 272 496 272
WIRE 640 272 560 272
FLAG -224 224 0
FLAG -32 144 clk
FLAG 160 32 P1
FLAG 144 272 n1
FLAG 352 16 p2
FLAG 352 272 n2
FLAG 560 96 0
FLAG 560 208 0
FLAG 672 32 VPOS
IOPIN 672 32 Out
FLAG 640 272 VNEG
IOPIN 640 272 Out
FLAG 640 144 0
SYMBOL 74hct14.i -128 96 R0
SYMATTR InstName U1
SYMBOL 74hct14.i 64 96 R0
SYMATTR InstName U2
SYMBOL diode 16 48 R270
WINDOW 0 32 32 VTop 0
WINDOW 3 0 32 VBottom 0
SYMATTR InstName D1
SYMATTR Value 1N4148
SYMBOL cap 160 48 R0
WINDOW 0 32 39 Left 0
SYMATTR InstName C1
SYMATTR Value 50n
SYMBOL cap 160 176 R0
WINDOW 0 30 37 Left 0
SYMATTR InstName C2
SYMATTR Value 50n
SYMBOL cap -240 160 R0
SYMATTR InstName C3
SYMATTR Value 10n
SYMBOL res -64 48 R90
WINDOW 0 0 56 VBottom 0
WINDOW 3 32 56 VTop 0
SYMATTR InstName R1
SYMATTR Value 5k
SYMBOL diode 240 48 R270
WINDOW 0 32 32 VTop 0
WINDOW 3 0 32 VBottom 0
SYMATTR InstName D3
SYMATTR Value 1N4148
SYMBOL cap 336 48 R0
WINDOW 0 32 18 Left 0
WINDOW 3 18 47 Left 0
SYMATTR InstName C4
SYMATTR Value 100n
SYMBOL cap 336 176 R0
WINDOW 3 30 38 Left 0
SYMATTR InstName C5
SYMATTR Value 100n
SYMBOL 74hct14.i 272 96 R0
SYMATTR InstName U3
SYMBOL diode 432 48 R270
WINDOW 0 32 32 VTop 0
WINDOW 3 0 32 VBottom 0
SYMATTR InstName D6
SYMATTR Value 1N4148
SYMBOL cap 544 32 R0
SYMATTR InstName C6
SYMATTR Value 300n
SYMBOL diode 80 256 R90
WINDOW 0 0 32 VBottom 0
WINDOW 3 32 32 VTop 0
SYMATTR InstName D2
SYMATTR Value 1N4148
SYMBOL diode 304 256 R90
WINDOW 0 0 32 VBottom 0
WINDOW 3 32 32 VTop 0
SYMATTR InstName D4
SYMATTR Value 1N4148
SYMBOL diode 496 256 R90
WINDOW 0 0 32 VBottom 0
WINDOW 3 34 28 VTop 0
SYMATTR InstName D5
SYMATTR Value 1N4148
SYMBOL cap 544 208 R0
WINDOW 0 37 23 Left 0
WINDOW 3 34 45 Left 0
SYMATTR InstName C7
SYMATTR Value 300n
SYMBOL res 624 48 R0
SYMATTR InstName R3
SYMATTR Value 5k
TEXT -240 312 Left 0 !.tran 4m uic
