Version 4
SHEET 1 2116 1044
WIRE 880 -96 880 -112
WIRE 48 -32 48 -64
WIRE 64 -32 48 -32
WIRE 880 -16 880 -32
WIRE 960 -16 880 -16
WIRE 304 0 304 -16
WIRE 496 0 304 0
WIRE 880 0 880 -16
WIRE -80 16 -80 0
WIRE 64 16 -80 16
WIRE 304 16 304 0
WIRE 304 16 256 16
WIRE 496 32 304 32
WIRE 960 32 960 -16
WIRE -80 64 -80 16
WIRE -64 64 -80 64
WIRE 64 64 16 64
WIRE 304 64 304 32
WIRE 304 64 256 64
WIRE 496 64 336 64
WIRE 64 112 -16 112
WIRE 336 112 336 64
WIRE 336 112 256 112
WIRE 352 112 336 112
WIRE 448 112 432 112
WIRE 880 112 880 80
WIRE 880 112 848 112
WIRE 960 112 960 96
WIRE 960 112 880 112
WIRE -16 160 -16 112
WIRE 64 160 48 160
WIRE 496 160 256 160
WIRE -272 208 -272 192
WIRE -272 208 -288 208
WIRE 64 208 -272 208
WIRE 352 208 336 208
WIRE 64 256 0 256
WIRE 352 256 336 256
WIRE 0 272 0 256
WIRE 64 304 32 304
WIRE 960 304 960 112
WIRE 960 304 256 304
WIRE 1024 304 960 304
WIRE 0 368 0 352
WIRE 32 400 32 304
WIRE 32 496 32 480
FLAG -368 208 0
FLAG 48 -144 0
FLAG 256 -32 0
FLAG 0 368 0
FLAG 352 256 0
FLAG 352 208 0
FLAG 880 -112 0
FLAG -272 192 sig
FLAG 448 112 0
FLAG 304 -96 0
FLAG -80 0 cmp
FLAG 496 0 PCI_out
IOPIN 496 0 Out
FLAG 496 64 PCIII_out
IOPIN 496 64 Out
FLAG 1024 304 VCOin
FLAG 496 160 PCII_out
IOPIN 496 160 Out
FLAG 768 112 PCII_out
IOPIN 768 112 In
FLAG 32 496 0
FLAG 496 32 PCP
IOPIN 496 32 Out
SYMBOL voltage -272 208 R90
WINDOW 123 0 0 Left 2
WINDOW 39 0 0 Left 2
WINDOW 3 92 -101 VRight 2
SYMATTR Value PULSE(0 5 10u 10n 10n 5u 10u)
SYMATTR InstName V1
SYMBOL voltage 48 -48 M180
WINDOW 0 24 104 Left 2
WINDOW 3 24 16 Left 2
WINDOW 123 0 0 Left 2
WINDOW 39 0 0 Left 2
SYMATTR InstName V2
SYMATTR Value 5
SYMBOL res 16 368 R180
WINDOW 0 36 76 Left 2
WINDOW 3 36 40 Left 2
SYMATTR InstName R3
SYMATTR Value 100k
SYMBOL res 352 272 M270
WINDOW 0 24 72 VTop 2
WINDOW 3 52 30 VBottom 2
SYMATTR InstName R1
SYMATTR Value 10k
SYMBOL res 352 224 M270
WINDOW 0 24 72 VTop 2
WINDOW 3 52 30 VBottom 2
SYMATTR InstName R2
SYMATTR Value 100k
SYMBOL cap 864 -32 M180
WINDOW 0 24 64 Left 2
WINDOW 3 24 8 Left 2
SYMATTR InstName C1
SYMATTR Value 10n
SYMBOL res 864 96 R90
WINDOW 0 0 56 VBottom 2
WINDOW 3 32 56 VTop 2
SYMATTR InstName R4
SYMATTR Value 130k
SYMBOL res 448 128 M270
WINDOW 0 24 72 VTop 2
WINDOW 3 52 30 VBottom 2
SYMATTR InstName R5
SYMATTR Value 100k
SYMBOL cap 48 144 R90
WINDOW 0 0 32 VBottom 2
WINDOW 3 32 32 VTop 2
SYMATTR InstName C2
SYMATTR Value 5.5n
SYMBOL res 32 80 M270
WINDOW 0 24 72 VTop 2
WINDOW 3 52 30 VBottom 2
SYMATTR InstName R6
SYMATTR Value 100k
SYMBOL cap 944 96 M180
WINDOW 0 24 64 Left 2
WINDOW 3 24 8 Left 2
SYMATTR InstName C3
SYMATTR Value 1.5n
SYMBOL res 864 96 M180
WINDOW 0 36 76 Left 2
WINDOW 3 36 40 Left 2
SYMATTR InstName R7
SYMATTR Value 36k
SYMBOL res 288 0 M180
WINDOW 0 36 76 Left 2
WINDOW 3 36 40 Left 2
SYMATTR InstName R8
SYMATTR Value 100k
SYMBOL res 48 496 R180
WINDOW 0 36 76 Left 2
WINDOW 3 36 40 Left 2
SYMATTR InstName R9
SYMATTR Value 1
SYMBOL 74HC4046A 144 176 R0
SYMATTR InstName X1
TEXT -384 424 Left 2 !.tran 27000u
TEXT 440 240 Left 2 ;Just change PCI_out to PCII_out or PCIII_out
TEXT 64 440 Left 2 ;SET R9 TO 100k - NO PULSES\nSET R9 TO 1 ------> RUN
TEXT 0 -272 Left 2 ;This is the next version of VCO-PLL model like 74HC/HCT4046A. \nIt tuned to correspond to VCO calculator in \nhttp://www.changpuak.ch/electronics/calc_03.php
LINE Normal 704 128 672 224
LINE Normal 694 143 704 128
LINE Normal 700 141 694 143
LINE Normal 701 148 700 141
LINE Normal 704 129 701 148
