Version 4
SHEET 1 1420 1172
WIRE -464 304 -480 304
WIRE -560 480 -560 464
WIRE -528 480 -560 480
WIRE -624 528 -640 528
WIRE -528 528 -624 528
WIRE -288 528 -288 496
WIRE -288 528 -336 528
WIRE -48 560 -64 560
WIRE -624 576 -624 528
WIRE -528 576 -624 576
WIRE -528 624 -576 624
WIRE -528 688 -528 672
WIRE -528 688 -576 688
WIRE -528 720 -640 720
WIRE -528 768 -560 768
WIRE -560 800 -560 768
WIRE -320 816 -336 816
FLAG -480 976 0
FLAG -400 304 Vcc
IOPIN -400 304 Out
FLAG -480 304 0
FLAG -640 528 gate-pi/2
IOPIN -640 528 Out
FLAG -336 480 0
FLAG -528 816 0
FLAG -256 720 0
FLAG -256 768 0
FLAG -560 880 0
FLAG -560 464 Vcc
IOPIN -560 464 Out
FLAG -288 496 PCI_1
IOPIN -288 496 Out
FLAG -640 720 Vgate
IOPIN -640 720 Out
FLAG -48 560 control1
IOPIN -48 560 Out
FLAG -320 816 control1
IOPIN -320 816 Out
FLAG -400 976 Vgate
IOPIN -400 976 Out
FLAG -144 560 0
SYMBOL voltage -384 976 M270
WINDOW 0 -15 57 VTop 2
WINDOW 3 -53 118 VBottom 2
WINDOW 123 -54 211 VTop 2
WINDOW 39 -53 57 VTop 2
SYMATTR InstName V3
SYMATTR Value PULSE(0 5 1u 10n 1n 0.25u 0.5u)
SYMBOL voltage -384 304 R90
WINDOW 0 8 58 VBottom 2
WINDOW 3 -49 11 VTop 2
WINDOW 123 0 0 Left 2
WINDOW 39 0 0 Left 2
SYMATTR InstName V2
SYMATTR Value 5
SYMBOL res -240 704 R90
WINDOW 0 0 56 VBottom 2
WINDOW 3 -27 -22 VTop 2
SYMATTR InstName R11
SYMATTR Value 1Meg
SYMBOL res -240 752 R90
WINDOW 0 0 56 VBottom 2
WINDOW 3 -21 -1 VTop 2
SYMATTR InstName R12
SYMATTR Value 10k
SYMBOL res -544 784 M0
SYMATTR InstName R13
SYMATTR Value 100k
SYMBOL cap -560 624 M0
SYMATTR InstName C10
SYMATTR Value 1000p
SYMBOL voltage -48 560 M270
WINDOW 0 -15 57 VTop 2
WINDOW 3 -39 58 VBottom 2
WINDOW 123 -54 211 VTop 2
WINDOW 39 -53 57 VTop 2
SYMATTR InstName V6
SYMATTR Value {V}
SYMBOL 74HC4046A -448 688 R0
SYMATTR InstName X1
TEXT -280 1040 Left 2 !.tran 500u
TEXT -136 648 Left 2 !.step param V List 1.1 2.5 3.9
TEXT -880 112 Left 2 ;For work whith 74HCHCT4046A_VCO_Calculator_adjust.xlsx
TEXT -880 144 Left 2 ;Change these values of Cap and Res, plot FFT(gate-pi/2)\nand look according Exel Table values and plots
LINE Normal -656 192 -592 592
LINE Normal -240 656 -656 192
CIRCLE Normal -528 720 -656 592
CIRCLE Normal -160 800 -336 656
