Version 4
SHEET 1 880 680
WIRE 176 48 176 32
WIRE -224 96 -288 96
WIRE 16 96 -144 96
WIRE 416 112 384 112
WIRE -288 128 -288 96
WIRE 16 128 -16 128
WIRE -16 160 -16 128
WIRE 16 160 -16 160
WIRE 416 176 416 112
WIRE 416 176 384 176
WIRE 464 176 416 176
WIRE -288 224 -288 208
WIRE 16 224 -16 224
WIRE -16 256 -16 224
WIRE 16 256 -16 256
WIRE 416 256 384 256
WIRE 416 272 416 256
WIRE -16 288 -16 256
WIRE 16 288 -16 288
WIRE -224 320 -288 320
WIRE 16 320 -144 320
WIRE -288 384 -288 320
WIRE 176 384 176 368
WIRE 256 416 256 368
WIRE 352 416 352 368
WIRE -288 480 -288 464
WIRE 256 528 256 496
WIRE 352 528 352 496
FLAG 256 528 0
FLAG 352 528 0
FLAG 464 176 out
FLAG -288 224 0
FLAG -288 480 0
FLAG 416 272 0
SYMBOL voltage 256 400 R0
SYMATTR InstName V1
SYMATTR Value 15
SYMBOL voltage 352 400 R0
SYMATTR InstName V2
SYMATTR Value -15
SYMBOL res -240 112 R270
WINDOW 0 32 56 VTop 2
WINDOW 3 0 56 VBottom 2
SYMATTR InstName R1
SYMATTR Value 1k
SYMBOL res -240 336 R270
WINDOW 0 32 56 VTop 2
WINDOW 3 0 56 VBottom 2
SYMATTR InstName R2
SYMATTR Value 1k
SYMBOL voltage -288 112 R0
SYMATTR InstName V3
SYMATTR Value -0.05
SYMBOL voltage -288 368 R0
WINDOW 123 0 0 Left 2
WINDOW 39 0 0 Left 2
SYMATTR InstName V4
SYMATTR Value 0.05
SYMBOL addon\\Opamps\\Instrumentation\\INA103 16 208 R0
SYMATTR InstName U1
TEXT -280 -48 Left 2 !.OP
TEXT -280 0 Left 2 !.OPTIONS Gmin=1e-11
TEXT -280 -224 Left 2 ;INA 103 Test Circuit\n--------------------------------\nGain is 100 or 1, if wire from G100->+RG is removed.\nReference: http://focus.ti.com/lit/ds/symlink/ina103.pdf
TEXT -280 -80 Left 2 !*.tran 20u
