Version 4
SHEET 1 1412 816
WIRE 432 -80 -416 -80
WIRE 384 -16 304 -16
WIRE 432 -16 432 -80
WIRE 432 -16 384 -16
WIRE 528 -16 432 -16
WIRE 624 -16 608 -16
WIRE 656 -16 624 -16
WIRE 432 0 432 -16
WIRE 624 48 624 -16
WIRE 832 48 624 48
WIRE 944 48 832 48
WIRE -416 64 -416 -80
WIRE 352 64 304 64
WIRE 368 64 368 32
WIRE 368 64 352 64
WIRE -784 80 -784 64
WIRE -656 80 -784 80
WIRE -448 80 -480 80
WIRE -336 96 -384 96
WIRE -32 96 -336 96
WIRE -448 112 -512 112
WIRE -128 144 -272 144
WIRE -32 144 -128 144
WIRE 352 160 352 64
WIRE 432 160 352 160
WIRE 512 160 432 160
WIRE 848 160 832 160
WIRE 928 160 912 160
WIRE 1024 160 1008 160
WIRE 1120 160 1104 160
WIRE 432 176 432 160
WIRE -784 192 -784 80
WIRE -32 208 -128 208
WIRE -32 224 -32 208
WIRE 928 240 928 160
WIRE 1008 240 1008 160
WIRE 1024 240 1008 240
WIRE 1120 240 1120 160
WIRE 1168 240 1120 240
WIRE 336 256 304 256
WIRE 368 256 336 256
WIRE 512 256 512 240
WIRE 672 256 512 256
WIRE 752 256 752 160
WIRE 784 256 752 256
WIRE 1120 256 1120 240
WIRE 1120 256 1088 256
WIRE -32 272 -128 272
WIRE 512 272 512 256
WIRE 928 272 928 240
WIRE 928 272 848 272
WIRE 1024 272 1008 272
WIRE 784 288 752 288
WIRE -784 304 -784 272
WIRE -144 320 -160 320
WIRE -32 320 -64 320
WIRE -64 336 -64 320
WIRE 512 352 512 336
WIRE 752 352 752 288
WIRE 896 352 752 352
WIRE 1008 352 1008 272
WIRE 1008 352 896 352
WIRE -720 384 -720 368
WIRE -720 400 -720 384
WIRE -704 400 -720 400
WIRE -32 416 -64 416
WIRE -720 432 -720 400
WIRE -704 432 -720 432
WIRE -720 464 -720 432
WIRE -704 464 -720 464
WIRE -720 496 -720 464
WIRE -704 496 -720 496
WIRE -704 528 -848 528
WIRE -64 592 -64 416
WIRE 1168 592 1168 240
WIRE 1168 592 -64 592
WIRE -480 624 -496 624
WIRE -272 656 -272 144
WIRE -272 656 -480 656
FLAG 432 80 0
FLAG -160 320 0
FLAG 304 464 0
FLAG -112 368 0
FLAG 384 -16 vcc
FLAG -784 64 in
FLAG -784 304 0
FLAG -416 128 0
FLAG -480 80 0
FLAG -336 96 SIGin
FLAG 512 352 0
FLAG 432 256 0
FLAG -720 384 Vcc
FLAG 336 256 vcoout
FLAG -848 528 vcoout
FLAG -128 144 compin
FLAG 736 -16 0
FLAG 832 48 Vcc/2
FLAG 896 352 VCC/2
SYMBOL Dig_Add\\CD4xxx\\CD4046B 176 -32 R0
SYMATTR InstName U1
SYMBOL voltage 432 -16 R0
WINDOW 123 0 0 Left 0
WINDOW 39 0 0 Left 0
SYMATTR InstName V1
SYMATTR Value 5
SYMBOL cap -144 208 R0
SYMATTR InstName C1
SYMATTR Value 1n
SYMBOL res -48 304 R90
WINDOW 0 0 56 VBottom 0
WINDOW 3 32 56 VTop 0
SYMATTR InstName R1
SYMATTR Value 1k
SYMBOL res -16 352 R90
WINDOW 0 0 56 VBottom 0
WINDOW 3 32 56 VTop 0
SYMATTR InstName R2
SYMATTR Value 1k
SYMBOL SPECIALFUNCTIONS\\MODULATE -656 80 R0
WINDOW 0 37 -55 Left 0
WINDOW 3 75 107 Center 0
SYMATTR InstName A1
SYMATTR Value mark=130k space=80K
SYMBOL voltage -784 176 R0
WINDOW 123 0 0 Left 0
WINDOW 39 0 0 Left 0
WINDOW 3 30 90 Left 0
SYMATTR Value PULSE(0 1 0 1n 1n 0.4m 0.8m)
SYMATTR InstName V2
SYMBOL Opamps\\1pole -416 96 R0
SYMATTR InstName U2
SYMATTR Value2 Avol=1Meg GBW=10Meg Slew=100Meg
SYMBOL res 496 144 R0
SYMATTR InstName R3
SYMATTR Value 1k
SYMBOL cap 496 272 R0
SYMATTR InstName C2
SYMATTR Value 10n
SYMBOL Dig_Add\\74XX\\HC&U\\74hc163.i -592 320 R0
SYMATTR InstName U3
SYMBOL Opamps\\opamp 816 208 R0
SYMATTR InstName U4
SYMBOL Opamps\\opamp 1056 192 R0
SYMATTR InstName U5
SYMBOL res 624 -32 R90
WINDOW 0 0 56 VBottom 0
WINDOW 3 32 56 VTop 0
SYMATTR InstName R5
SYMATTR Value 10k
SYMBOL res 752 -32 R90
WINDOW 0 0 56 VBottom 0
WINDOW 3 32 56 VTop 0
SYMATTR InstName R6
SYMATTR Value 10k
SYMBOL res 768 240 R90
WINDOW 0 0 56 VBottom 0
WINDOW 3 32 56 VTop 0
SYMATTR InstName R7
SYMATTR Value 10k
SYMBOL res 848 144 R90
WINDOW 0 0 56 VBottom 0
WINDOW 3 32 56 VTop 0
SYMATTR InstName R8
SYMATTR Value 10k
SYMBOL cap 912 144 R90
WINDOW 0 0 32 VBottom 0
WINDOW 3 32 32 VTop 0
SYMATTR InstName C3
SYMATTR Value 100n
SYMBOL res 1024 224 R90
WINDOW 0 0 56 VBottom 0
WINDOW 3 32 56 VTop 0
SYMATTR InstName R9
SYMATTR Value 10k
SYMBOL res 1120 144 R90
WINDOW 0 0 56 VBottom 0
WINDOW 3 32 56 VTop 0
SYMATTR InstName R10
SYMATTR Value 10k
SYMBOL res 416 160 R0
SYMATTR InstName R4
SYMATTR Value 50k
TEXT -208 528 Left 0 !.tran 1m
