Version 4
SHEET 1 928 680
WIRE 32 48 0 48
WIRE 128 48 112 48
WIRE 80 144 64 144
WIRE 80 160 80 144
WIRE -288 176 -320 176
WIRE -144 176 -288 176
WIRE -112 176 -144 176
WIRE 0 176 0 48
WIRE 0 176 -32 176
WIRE 48 176 0 176
WIRE 768 176 400 176
WIRE 800 176 768 176
WIRE 128 192 128 48
WIRE 128 192 112 192
WIRE 160 192 128 192
WIRE 352 192 160 192
WIRE 48 208 0 208
WIRE -144 272 -144 176
WIRE -128 272 -144 272
WIRE 0 272 0 208
WIRE 0 272 -48 272
WIRE 64 272 48 272
WIRE 80 272 80 224
WIRE 80 272 64 272
WIRE 352 272 352 240
WIRE 0 320 0 272
WIRE 144 320 112 320
WIRE 208 320 144 320
WIRE -112 400 -144 400
WIRE -48 400 -112 400
WIRE 240 400 208 400
WIRE 0 448 0 416
WIRE 144 496 112 496
WIRE 208 496 208 480
WIRE 208 496 144 496
FLAG 240 400 0
FLAG 144 320 VCC
FLAG 144 496 VEE
FLAG 64 144 VCC
FLAG 64 272 VEE
FLAG -144 480 0
FLAG -320 256 0
FLAG 160 192 out
FLAG -288 176 in
FLAG -112 400 mod
FLAG 352 272 0
FLAG 400 256 0
FLAG 768 176 out1
FLAG 0 448 0
SYMBOL OpAmp.Add\\OPAMP1_all 80 128 R0
WINDOW 0 -20 65 Left 0
SYMATTR InstName U1
SYMATTR SpiceModel TL082
SYMBOL res -16 160 R90
WINDOW 0 0 56 VBottom 0
WINDOW 3 32 56 VTop 0
SYMATTR InstName R1
SYMATTR Value 1k
SYMBOL res 128 32 R90
WINDOW 0 0 56 VBottom 0
WINDOW 3 32 56 VTop 0
SYMATTR InstName R2
SYMATTR Value 1k
SYMBOL res -32 288 M270
WINDOW 0 32 56 VTop 0
WINDOW 3 0 56 VBottom 0
SYMATTR InstName R3
SYMATTR Value 1k
SYMBOL NMOS\\BS170 -48 320 R0
SYMATTR InstName U2
SYMBOL voltage 208 304 R0
WINDOW 0 35 56 Left 0
WINDOW 3 -55 62 Left 0
WINDOW 123 0 0 Left 0
WINDOW 39 0 0 Left 0
SYMATTR InstName V1
SYMATTR Value 10
SYMBOL voltage 208 384 R0
WINDOW 0 36 60 Left 0
WINDOW 3 -57 41 Left 0
WINDOW 123 0 0 Left 0
WINDOW 39 0 0 Left 0
SYMATTR InstName V2
SYMATTR Value 10
SYMBOL voltage -320 160 R0
WINDOW 123 0 0 Left 0
WINDOW 39 0 0 Left 0
WINDOW 0 31 63 Left 0
SYMATTR InstName V3
SYMATTR Value SINE(2 1 3k)
SYMBOL voltage -144 384 R0
WINDOW 123 0 0 Left 0
WINDOW 39 0 0 Left 0
WINDOW 0 33 55 Left 0
WINDOW 3 -110 135 Left 0
SYMATTR InstName V4
SYMATTR Value PULSE(-10 10 0 1n 1n 5u 10u)
SYMBOL e 400 160 R0
WINDOW 0 33 57 Left 0
WINDOW 3 -197 -53 Left 0
SYMATTR InstName E1
SYMATTR Value Laplace={2*m/w0*s /(s**2/ {w0**2} + 2*m/w0*s+ 1)}
TEXT -368 296 Left 0 !.tran 2m
TEXT 208 136 Left 0 !.param w0=2*pi*100k\n.param m=0.1
TEXT -368 320 Left 0 !;ac dec 100 100 1Meg
TEXT 328 64 Left 0 ;PASSE-BANDE 2nd ORDRE
RECTANGLE Normal 720 304 192 80
