Version 4
SHEET 1 1672 1640
WIRE 384 880 384 864
WIRE 512 880 384 880
WIRE 816 912 656 912
WIRE 944 912 816 912
WIRE 1312 912 1152 912
WIRE 1072 928 1008 928
WIRE 1104 928 1072 928
WIRE 944 944 864 944
WIRE 816 960 800 960
WIRE 864 960 864 944
WIRE 864 960 816 960
WIRE 1104 976 1072 976
WIRE 384 992 384 880
WIRE 1072 1008 1072 976
WIRE 1152 1008 1152 992
WIRE 1312 1072 1312 912
WIRE 384 1104 384 1072
WIRE 1216 1120 1152 1120
WIRE 1248 1120 1216 1120
WIRE 1424 1120 1360 1120
WIRE 800 1152 800 960
WIRE 1008 1152 800 1152
WIRE 1424 1216 1424 1200
FLAG 384 864 in
FLAG 1072 1008 0
FLAG 1152 1008 0
FLAG 384 1104 0
FLAG 816 912 ve
FLAG 816 960 vs
FLAG 1424 1216 0
FLAG 1216 1120 Vin
FLAG 1072 928 u
SYMBOL SPECIALFUNCTIONS\\MODULATE 512 880 R0
WINDOW 0 37 -55 Left 2
WINDOW 3 75 107 Center 2
SYMATTR InstName A1
SYMATTR Value mark=105K space=95K
SYMBOL SPECIALFUNCTIONS\\MODULATE 1152 1120 M0
WINDOW 0 55 -48 Right 2
WINDOW 3 61 119 Center 2
SYMATTR InstName A3
SYMATTR Value mark=105k space=95k
SYMBOL E 1152 896 R0
WINDOW 0 30 42 Left 2
WINDOW 3 -97 -7 Left 2
SYMATTR InstName E2
SYMATTR Value Laplace=1/(1+s/w0)
SYMBOL voltage 384 976 R0
WINDOW 123 0 0 Left 2
WINDOW 39 0 0 Left 2
WINDOW 3 30 90 Left 2
SYMATTR Value PULSE(0.2 0.8 0 1n 1n 1m 2m)
SYMATTR InstName V1
SYMBOL sommateur 1280 1120 R180
SYMATTR InstName U2
SYMBOL voltage 1424 1104 R0
WINDOW 3 39 74 Left 2
WINDOW 123 0 0 Left 2
WINDOW 39 0 0 Left 2
SYMATTR Value 0.5
SYMATTR InstName V2
SYMBOL addon\\math\\Math2 976 928 R0
SYMATTR SpiceModel x
SYMATTR InstName U3
TEXT 496 1136 Left 2 !.tran 3m
TEXT 1056 856 Left 2 !.param w0=2*pi*5K
TEXT 1112 816 Left 2 ;passe-bas
TEXT 1048 1152 Left 2 ;VCO
RECTANGLE Normal 1296 1040 1024 832
