Version 4
SHEET 1 956 1212
WIRE -128 -704 -192 -704
WIRE -192 -688 -192 -704
WIRE -192 -592 -192 -608
WIRE -320 -528 -400 -528
WIRE -128 -528 -192 -528
WIRE -400 -512 -400 -528
WIRE -192 -512 -192 -528
WIRE -400 -416 -400 -432
WIRE -192 -416 -192 -432
WIRE -272 -320 -368 -320
WIRE -272 -288 -304 -288
WIRE -272 -256 -304 -256
WIRE -272 -192 -368 -192
WIRE -272 -128 -320 -128
WIRE -320 -96 -320 -128
WIRE -272 -96 -320 -96
WIRE -320 -64 -320 -96
WIRE -272 -64 -320 -64
WIRE -272 -32 -384 -32
WIRE 32 -16 -16 -16
WIRE -320 0 -320 -64
WIRE -272 0 -320 0
WIRE -320 32 -320 0
WIRE -272 32 -320 32
WIRE -320 64 -320 32
WIRE -272 64 -320 64
WIRE -320 96 -320 64
WIRE -272 96 -320 96
WIRE -16 96 -64 96
WIRE -320 144 -320 96
FLAG -400 -416 0
FLAG -320 -528 VCC
FLAG -192 -416 0
FLAG -192 -528 in
FLAG -368 -320 VCC
FLAG -368 -192 in
FLAG -384 -32 VCC
FLAG -272 -224 0
FLAG -320 144 0
FLAG 32 -16 tc
IOPIN 32 -16 Out
FLAG -304 -256 tc
IOPIN -304 -256 In
FLAG -192 -592 0
FLAG -192 -704 init
FLAG -304 -288 init
SYMBOL voltage -400 -528 R0
SYMATTR InstName V1
SYMATTR Value 5V
SYMBOL voltage -192 -528 R0
WINDOW 123 0 0 Left 2
WINDOW 39 0 0 Left 2
SYMATTR InstName V2
SYMATTR Value PULSE(0 5 0 .1u .1u .4u 1u)
SYMBOL voltage -192 -704 R0
WINDOW 123 0 0 Left 2
WINDOW 39 0 0 Left 2
SYMATTR InstName V3
SYMATTR Value PWL(0 0 .5u 0 .6u 5)
SYMBOL addon\\Digital\\74HC\\74HC40103 -144 -384 R0
SYMATTR InstName U1
TEXT -440 -680 Left 2 ;.include 74hc.lib
TEXT -440 -608 Left 2 !.tran 0 40u 0 10n
TEXT -440 -704 Left 2 ;Libraries
TEXT -440 -632 Left 2 ;Simulation
