Version 4
SHEET 1 880 680
WIRE 272 96 256 96
WIRE 416 96 384 96
WIRE 256 192 256 96
WIRE 304 192 256 192
WIRE 416 192 416 96
WIRE 416 192 384 192
FLAG 256 256 0
FLAG 512 192 0
FLAG 512 112 VDD
SYMBOL addon\\Digital\\CD4xxx\\cd40106b 320 48 R0
SYMATTR InstName U1
SYMBOL cap 240 192 R0
SYMATTR InstName C1
SYMATTR Value 100nF
SYMBOL res 400 176 R90
WINDOW 0 0 56 VBottom 2
WINDOW 3 32 56 VTop 2
SYMATTR InstName R1
SYMATTR Value 1K
SYMBOL voltage 512 96 R0
WINDOW 123 0 0 Left 2
WINDOW 39 0 0 Left 2
SYMATTR InstName V1
SYMATTR Value 10
TEXT 56 136 Left 2 !.tran 10ms uic
