Version 4
SHEET 1 880 680
WIRE 16 160 0 160
WIRE 0 176 0 160
WIRE 0 176 -80 176
WIRE 160 176 128 176
WIRE 176 176 160 176
WIRE 0 192 0 176
WIRE 16 192 0 192
WIRE 176 272 176 256
FLAG -80 256 0
FLAG 176 272 0
FLAG 160 176 out
FLAG 336 240 0
FLAG 336 160 Vcc
SYMBOL 74hc00.i 64 112 R0
SYMATTR InstName U1
SYMBOL voltage -80 160 R0
WINDOW 123 0 0 Left 2
WINDOW 39 0 0 Left 2
SYMATTR InstName V1
SYMATTR Value PULSE(0 5 0 0 0 2u 4u)
SYMBOL res 160 160 R0
SYMATTR InstName R1
SYMATTR Value {R}
SYMBOL voltage 336 144 R0
WINDOW 123 0 0 Left 2
WINDOW 39 0 0 Left 2
SYMATTR InstName V2
SYMATTR Value 5
TEXT 16 328 Left 2 !.step param R list 100 200 500 1k 2K 5K
TEXT -112 504 Left 2 !.tran 10u
