Version 4
SHEET 1 880 680
WIRE 96 112 0 112
WIRE 208 112 96 112
WIRE 352 112 208 112
WIRE 608 112 352 112
WIRE 96 128 96 112
WIRE 208 176 208 112
WIRE 0 208 0 112
WIRE 96 224 96 208
WIRE 144 224 96 224
WIRE 608 224 608 112
WIRE 96 240 96 224
WIRE 352 240 352 112
WIRE -144 288 -192 288
WIRE -128 288 -144 288
WIRE 0 288 -64 288
WIRE 32 288 0 288
WIRE 208 288 208 272
WIRE 272 288 208 288
WIRE 288 288 272 288
WIRE 0 304 0 288
WIRE 208 304 208 288
WIRE 496 304 480 304
WIRE 400 336 352 336
WIRE 480 336 480 304
WIRE 480 336 464 336
WIRE 96 352 96 336
WIRE 352 352 352 336
WIRE 480 384 480 336
WIRE 512 384 480 384
WIRE 272 400 272 288
WIRE 288 400 272 400
WIRE 512 416 480 416
WIRE 608 416 608 304
WIRE -144 464 -144 368
WIRE 0 464 0 384
WIRE 0 464 -144 464
WIRE 96 464 96 432
WIRE 96 464 0 464
WIRE 208 464 208 384
WIRE 208 464 96 464
WIRE 352 464 352 448
WIRE 352 464 208 464
WIRE 96 480 96 464
FLAG 96 480 0
FLAG 608 416 0
FLAG -192 288 VIN
IOPIN -192 288 In
FLAG 480 416 0
FLAG 496 304 out
IOPIN 496 304 Out
SYMBOL npn 32 240 R0
SYMATTR InstName Q1
SYMATTR Value 2N2222
SYMBOL res 80 112 R0
SYMATTR InstName R1
SYMATTR Value 10k
SYMBOL voltage 608 208 R0
WINDOW 123 0 0 Left 2
WINDOW 39 0 0 Left 2
SYMATTR InstName V1
SYMATTR Value 10V
SYMBOL voltage -144 272 R0
WINDOW 3 -23 159 Left 2
WINDOW 123 -22 133 Left 2
WINDOW 39 0 0 Left 2
WINDOW 0 -24 55 Left 2
SYMATTR Value SINE(0 0.2 1K)
SYMATTR Value2 AC 1
SYMATTR InstName V2
SYMBOL res 16 304 R180
WINDOW 0 36 76 Left 2
WINDOW 3 36 40 Left 2
SYMATTR InstName R2
SYMATTR Value 9k
SYMBOL res 80 336 R0
SYMATTR InstName R3
SYMATTR Value 820
SYMBOL res 16 400 R180
WINDOW 0 36 76 Left 2
WINDOW 3 36 40 Left 2
SYMATTR InstName R4
SYMATTR Value 1k
SYMBOL cap -64 272 R90
WINDOW 0 0 32 VBottom 2
WINDOW 3 32 32 VTop 2
SYMATTR InstName C1
SYMATTR Value 1µ
SYMBOL npn 144 176 R0
SYMATTR InstName Q2
SYMATTR Value 2N2222
SYMBOL res 192 288 R0
SYMATTR InstName R6
SYMATTR Value 200
SYMBOL npn 288 240 R0
WINDOW 3 29 52 Left 2
SYMATTR Value 2N3055
SYMATTR InstName Q3
SYMBOL cap 464 320 R90
WINDOW 0 0 32 VBottom 2
WINDOW 3 32 32 VTop 2
SYMATTR InstName C2
SYMATTR Value 1000µ
SYMBOL pnp 288 448 M180
WINDOW 0 33 33 Left 2
WINDOW 3 31 52 Left 2
SYMATTR InstName Q4
SYMATTR Value 2N2907S
SYMBOL addon\\Speakers\\speakers 544 400 R0
SYMATTR InstName U2
TEXT -152 488 Left 2 !.tran 10ms
TEXT -152 552 Left 2 !;.step NPN 2N2222(BF) 100 250 25\n;.step temp -55 125 5
TEXT -448 0 Left 2 ;dans cet exemple on utilise la directive .step pour modifier le gain BF du modele
TEXT -152 520 Left 2 !;ac dec 1000 10 1000k
