Version 4
SHEET 1 880 680
WIRE -512 -80 -544 -80
WIRE -544 -64 -544 -80
WIRE -544 -64 -576 -64
WIRE -352 -64 -400 -64
WIRE -320 -64 -352 -64
WIRE -544 -48 -544 -64
WIRE -512 -48 -544 -48
WIRE -352 -48 -352 -64
WIRE -80 -16 -160 -16
WIRE 144 -16 -80 -16
WIRE -352 32 -352 16
WIRE -160 48 -160 -16
WIRE -224 96 -240 96
WIRE 144 160 144 -16
WIRE -432 176 -464 176
WIRE -576 192 -576 -64
WIRE -576 192 -640 192
WIRE -464 192 -464 176
WIRE -464 192 -576 192
WIRE -240 192 -240 96
WIRE -240 192 -320 192
WIRE -160 192 -160 144
WIRE -48 192 -160 192
WIRE -32 192 -48 192
WIRE -464 208 -464 192
WIRE -432 208 -464 208
WIRE -160 240 -160 192
WIRE -576 256 -576 192
WIRE -48 256 -48 192
WIRE -240 288 -240 192
WIRE -224 288 -240 288
WIRE -576 384 -576 336
WIRE -160 384 -160 336
WIRE -160 384 -576 384
WIRE -48 384 -48 320
WIRE -48 384 -160 384
WIRE 144 384 144 240
WIRE 144 384 -48 384
WIRE -160 400 -160 384
FLAG -160 400 0
FLAG -640 192 VIN
IOPIN -640 192 In
FLAG -32 192 VOUT
IOPIN -32 192 Out
FLAG -80 -16 Vcc
FLAG -352 32 0
FLAG -320 -64 VOUT1
IOPIN -320 -64 Out
SYMBOL voltage 144 144 R0
WINDOW 123 0 0 Left 2
WINDOW 39 0 0 Left 2
SYMATTR InstName V1
SYMATTR Value 5V
SYMBOL voltage -576 240 R0
WINDOW 123 0 0 Left 2
WINDOW 39 0 0 Left 2
WINDOW 3 -135 166 Left 2
SYMATTR Value PULSE(0 5V 0 1n 1n 5u 10u)
SYMATTR InstName V2
SYMBOL npn -224 48 R0
SYMATTR InstName Q1
SYMATTR Value 2N2222
SYMBOL pnp -224 336 M180
WINDOW 0 52 34 Left 2
WINDOW 3 50 65 Left 2
SYMATTR InstName Q2
SYMATTR Value 2N2907
SYMBOL cap -64 256 R0
SYMATTR InstName C1
SYMATTR Value 50n
SYMBOL 74hct00.i -384 128 R0
SYMATTR InstName U1
SYMBOL 74hct00.i -464 -128 R0
SYMATTR InstName U2
SYMBOL cap -368 -48 R0
SYMATTR InstName C2
SYMATTR Value 50n
TEXT -568 432 Left 2 !.tran 20u
