Version 4
SHEET 1 880 680
WIRE 256 -96 112 -96
WIRE 112 -64 112 -96
WIRE 256 0 256 -96
WIRE 512 0 256 0
WIRE 112 32 112 16
WIRE 512 32 512 0
WIRE 336 96 64 96
WIRE 64 144 64 96
WIRE 64 240 64 224
WIRE 512 256 512 240
WIRE 512 256 256 256
WIRE 256 288 256 256
FLAG 64 240 0
FLAG 256 288 0
FLAG 112 32 0
SYMBOL voltage 112 -80 R0
SYMATTR InstName V1
SYMATTR Value 10
SYMBOL current 64 224 M180
WINDOW 0 24 88 Left 2
WINDOW 3 24 0 Left 2
SYMATTR InstName I1
SYMATTR Value 1m
SYMBOL addon\\Transistors\\DARLINGTON_NPN 352 48 R0
SYMATTR InstName U2
TEXT 8 -168 Left 2 !.dc V1 0 10 0.01 I1  0 10m 1m
