Version 4
SHEET 1 880 680
WIRE 256 -32 32 -32
WIRE 32 0 32 -32
WIRE 256 0 256 -32
WIRE 32 96 32 80
WIRE 544 144 432 144
WIRE 544 192 544 144
WIRE 256 272 256 208
WIRE 544 272 256 272
WIRE 256 288 256 272
FLAG 256 288 0
FLAG 32 96 0
SYMBOL voltage 32 -16 R0
WINDOW 123 0 0 Left 2
WINDOW 39 0 0 Left 2
SYMATTR InstName V1
SYMATTR Value 10
SYMBOL current 544 192 M0
WINDOW 0 24 88 Left 2
WINDOW 3 24 0 Left 2
WINDOW 123 0 0 Left 2
WINDOW 39 0 0 Left 2
SYMATTR InstName I1
SYMATTR Value 1m
SYMBOL addon\\Transistors\\DARLINGTON_PNP 416 192 R180
SYMATTR InstName U2
SYMATTR SpiceModel MJF127
TEXT 8 -168 Left 2 !.dc V1 0 10 0.01 I1  0 10m 1m
TEXT 256 -96 Left 2 ;Model from Onsemi
