Version 4
SHEET 1 880 732
WIRE -784 -48 -832 -48
WIRE -656 -48 -784 -48
WIRE -464 -48 -656 -48
WIRE -656 -32 -656 -48
WIRE -464 -32 -464 -48
WIRE -704 0 -720 0
WIRE -512 0 -544 0
WIRE -832 112 -832 -48
WIRE -656 112 -656 48
WIRE -576 112 -656 112
WIRE -464 112 -464 48
WIRE -464 112 -512 112
WIRE -656 144 -656 112
WIRE -464 144 -464 112
WIRE -704 176 -720 176
WIRE -512 176 -528 176
WIRE -832 240 -832 192
WIRE -464 240 -464 224
WIRE -464 240 -832 240
WIRE -656 256 -656 224
WIRE -288 256 -656 256
WIRE -240 256 -288 256
WIRE -832 272 -832 240
WIRE -672 384 -672 352
WIRE -672 384 -704 384
WIRE -640 384 -672 384
WIRE -560 384 -560 368
WIRE -560 384 -576 384
WIRE -288 400 -288 320
WIRE -704 480 -704 464
FLAG -784 -48 in1
IOPIN -784 -48 In
FLAG -704 480 0
FLAG -672 352 comm
FLAG -832 272 0
FLAG -560 368 com~
FLAG -240 256 out1
IOPIN -240 256 Out
FLAG -720 0 comm
FLAG -720 176 com~
FLAG -528 176 comm
FLAG -544 0 com~
FLAG -288 400 0
SYMBOL cap -272 320 R180
WINDOW 0 -33 13 Left 0
WINDOW 3 24 8 Left 0
SYMATTR InstName C1
SYMATTR Value 10µ
SYMBOL voltage -832 96 R0
WINDOW 123 0 0 Left 0
WINDOW 39 0 0 Left 0
WINDOW 3 30 42 Left 0
SYMATTR InstName V2
SYMATTR Value 5
SYMBOL Digital\\inv -640 320 R0
SYMATTR InstName A1
SYMBOL voltage -704 368 R0
WINDOW 123 0 0 Left 0
WINDOW 39 0 0 Left 0
WINDOW 0 36 61 Left 0
SYMATTR InstName V3
SYMATTR Value PULSE(0 5 0 0 0 10u 20u)
SYMBOL cap -576 128 R270
WINDOW 0 32 32 VTop 0
WINDOW 3 0 32 VBottom 0
SYMATTR InstName C2
SYMATTR Value 10µ
SYMBOL sw_all -656 -48 R0
WINDOW 0 30 80 Left 0
SYMATTR InstName U1
SYMBOL sw_all -656 128 R0
WINDOW 0 28 74 Left 0
SYMATTR InstName U4
SYMBOL sw_all -464 128 R0
WINDOW 0 36 53 Left 0
SYMATTR InstName U2
SYMBOL sw_all -464 -48 R0
WINDOW 0 35 53 Left 0
SYMATTR InstName U3
TEXT -496 408 Left 0 !.tran 3ms
