Version 4
SHEET 1 880 680
WIRE -288 0 -288 -32
WIRE -336 112 -352 112
WIRE -288 112 -288 64
WIRE -288 112 -336 112
WIRE -192 112 -288 112
WIRE 0 112 0 96
WIRE 0 112 -112 112
WIRE 80 112 0 112
WIRE 208 112 208 48
WIRE 208 112 160 112
WIRE 288 112 208 112
WIRE 0 144 0 112
WIRE -160 176 -160 160
WIRE -128 176 -160 176
WIRE 112 176 112 160
WIRE 144 176 112 176
WIRE 160 176 144 176
WIRE -256 256 -272 256
WIRE -192 256 -256 256
WIRE 0 256 0 208
WIRE 0 256 -112 256
WIRE 80 256 0 256
WIRE 208 256 160 256
WIRE 208 288 208 256
WIRE 112 320 112 304
WIRE 144 320 112 320
WIRE -160 336 -160 304
WIRE -128 336 -160 336
WIRE -112 416 -160 416
WIRE -48 416 -112 416
WIRE 80 416 16 416
WIRE -160 432 -160 416
FLAG -256 256 Vcc
FLAG -288 -32 Vcc
FLAG -352 112 out
FLAG 208 48 Vcc
FLAG 208 288 0
FLAG 144 176 comm
FLAG 144 320 comm
FLAG -128 176 comm~
FLAG -128 336 comm~
FLAG -160 512 0
FLAG -112 416 comm
FLAG 80 416 comm~
FLAG 288 192 0
FLAG 0 96 Vc1
FLAG -336 192 0
SYMBOL cap -16 144 R0
SYMATTR InstName C1
SYMATTR Value 100n
SYMBOL cap -304 0 R0
SYMATTR InstName C2
SYMATTR Value 1µ
SYMBOL sw_all -208 112 R270
SYMATTR InstName U1
SYMBOL sw_all -208 256 R270
SYMATTR InstName U2
SYMBOL sw_all 64 256 R270
SYMATTR InstName U4
SYMBOL sw_all 64 112 R270
SYMATTR InstName U5
SYMBOL voltage -160 416 R0
WINDOW 123 0 0 Left 0
WINDOW 39 0 0 Left 0
SYMATTR InstName V1
SYMATTR Value PULSE(0 5 0 1n 1n 10u 20u)
SYMBOL Digital\\inv -48 352 R0
SYMATTR InstName A1
SYMBOL voltage 288 96 R0
WINDOW 123 0 0 Left 0
WINDOW 39 0 0 Left 0
SYMATTR InstName V2
SYMATTR Value 5
SYMBOL res -352 96 R0
SYMATTR InstName R1
SYMATTR Value 1k
TEXT -336 400 Left 0 !.tran 1000u
