Version 4
SHEET 1 880 732
WIRE -256 160 -304 160
WIRE -224 160 -256 160
WIRE -80 160 -144 160
WIRE -16 160 -80 160
WIRE 128 160 64 160
WIRE 224 160 128 160
WIRE -80 176 -80 160
WIRE 224 176 224 160
WIRE -192 224 -192 208
WIRE -192 224 -240 224
WIRE 16 224 16 208
WIRE 16 224 -32 224
WIRE -304 288 -304 240
WIRE -224 288 -304 288
WIRE -80 288 -80 240
WIRE -80 288 -144 288
WIRE -16 288 -80 288
WIRE 128 288 128 224
WIRE 128 288 64 288
WIRE 192 288 128 288
WIRE -304 320 -304 288
WIRE -240 352 -240 224
WIRE -192 352 -192 336
WIRE -192 352 -240 352
WIRE -32 368 -32 224
WIRE 16 368 16 336
WIRE 16 368 -32 368
WIRE -192 400 -192 352
WIRE 16 416 16 368
WIRE -192 432 -192 400
WIRE -192 432 -224 432
WIRE -160 432 -192 432
WIRE 16 432 16 416
WIRE 16 432 -96 432
WIRE -224 528 -224 512
FLAG -256 160 in1
IOPIN -256 160 In
FLAG -224 528 0
FLAG -192 400 comm
FLAG -304 320 0
FLAG 224 176 0
FLAG 16 416 com~
FLAG 192 288 out1
IOPIN 192 288 Out
SYMBOL cap 144 224 R180
WINDOW 0 -35 37 Left 0
WINDOW 3 -37 3 Left 0
SYMATTR InstName C2
SYMATTR Value 10µ
SYMBOL voltage -304 144 R0
WINDOW 123 0 0 Left 0
WINDOW 39 0 0 Left 0
WINDOW 0 33 48 Left 0
WINDOW 3 34 73 Left 0
SYMATTR InstName V2
SYMATTR Value 5
SYMBOL Digital\\inv -160 368 R0
SYMATTR InstName A1
SYMBOL voltage -224 416 R0
WINDOW 123 0 0 Left 0
WINDOW 39 0 0 Left 0
SYMATTR InstName V3
SYMATTR Value PULSE(0 5 0 0 0 10u 20u)
SYMBOL cap -64 240 R180
WINDOW 0 -29 45 Left 0
WINDOW 3 -23 12 Left 0
SYMATTR InstName C1
SYMATTR Value 10µ
SYMBOL sw_all -240 160 R270
WINDOW 0 -40 82 Left 0
SYMATTR InstName U1
SYMBOL sw_all -240 288 R270
WINDOW 0 -40 82 Left 0
SYMATTR InstName U4
SYMBOL sw_all -32 160 R270
WINDOW 0 -40 82 Left 0
SYMATTR InstName U2
SYMBOL sw_all -32 288 R270
WINDOW 0 -40 82 Left 0
SYMATTR InstName U3
TEXT -168 488 Left 0 !.tran 3ms
