Version 4
SHEET 1 880 680
WIRE 16 32 -48 32
WIRE 160 32 80 32
WIRE 176 32 160 32
WIRE 240 32 176 32
WIRE 352 32 304 32
WIRE 176 48 176 32
WIRE -160 64 -192 64
WIRE -48 64 -48 32
WIRE -48 64 -80 64
WIRE -192 144 -192 64
WIRE -192 144 -224 144
WIRE -176 144 -192 144
WIRE -48 144 -48 64
WIRE -48 144 -64 144
WIRE -32 144 -48 144
WIRE 16 144 -32 144
WIRE 176 144 176 112
WIRE 176 144 128 144
WIRE 224 144 176 144
WIRE 352 144 352 96
WIRE -224 160 -224 144
FLAG -224 224 0
FLAG -32 144 clk
FLAG 160 32 P1
FLAG 352 224 0
SYMBOL 74hct14.i -128 96 R0
SYMATTR InstName U1
SYMBOL 74hct14.i 64 96 R0
SYMATTR InstName U2
SYMBOL diode 16 48 R270
WINDOW 0 32 32 VTop 0
WINDOW 3 0 32 VBottom 0
SYMATTR InstName D1
SYMATTR Value 1N4148
SYMBOL cap 160 48 R0
WINDOW 0 32 39 Left 0
SYMATTR InstName C1
SYMATTR Value 50n
SYMBOL cap -240 160 R0
SYMATTR InstName C3
SYMATTR Value 10n
SYMBOL res -64 48 R90
WINDOW 0 0 56 VBottom 0
WINDOW 3 32 56 VTop 0
SYMATTR InstName R1
SYMATTR Value 5k
SYMBOL diode 240 48 R270
WINDOW 0 32 32 VTop 0
WINDOW 3 0 32 VBottom 0
SYMATTR InstName D2
SYMATTR Value 1N4148
SYMBOL cap 336 32 R0
WINDOW 0 32 39 Left 0
SYMATTR InstName C2
SYMATTR Value 50n
SYMBOL voltage 352 128 R0
WINDOW 123 0 0 Left 0
WINDOW 39 0 0 Left 0
SYMATTR InstName V1
SYMATTR Value 12
TEXT -240 312 Left 0 !.tran 4m uic
