Version 4
SHEET 1 880 680
WIRE -96 32 -96 16
WIRE -64 32 -96 32
WIRE 80 32 0 32
WIRE 96 32 80 32
WIRE 176 32 96 32
WIRE 336 32 240 32
WIRE 352 32 336 32
WIRE 432 32 352 32
WIRE 544 32 496 32
WIRE 592 32 544 32
WIRE 96 48 96 32
WIRE 352 48 352 32
WIRE -224 64 -256 64
WIRE -128 64 -144 64
WIRE 544 80 544 32
WIRE -256 144 -256 64
WIRE -256 144 -288 144
WIRE -240 144 -256 144
WIRE -128 144 -128 64
WIRE -128 144 -144 144
WIRE -96 144 -128 144
WIRE -80 144 -96 144
WIRE 96 144 96 112
WIRE 96 144 32 144
WIRE 160 144 96 144
WIRE 352 144 352 112
WIRE 352 144 272 144
WIRE 432 144 352 144
WIRE 448 144 432 144
WIRE -288 160 -288 144
WIRE 96 176 96 144
WIRE 352 176 352 144
WIRE -64 272 -112 272
WIRE 64 272 0 272
WIRE 96 272 96 240
WIRE 96 272 64 272
WIRE 160 272 96 272
WIRE 352 272 352 240
WIRE 352 272 224 272
WIRE 448 272 352 272
WIRE 544 272 512 272
WIRE 608 272 544 272
WIRE -112 304 -112 272
WIRE 320 368 288 368
WIRE 368 368 320 368
FLAG -288 224 0
FLAG -96 144 clk
FLAG 80 32 P1
FLAG 64 272 n1
FLAG 336 32 p2
FLAG 352 272 n2
FLAG 592 32 VH1
IOPIN 592 32 Out
FLAG 608 272 VH2
IOPIN 608 272 Out
FLAG 448 224 0
FLAG 432 144 clkout
FLAG 368 448 0
FLAG 320 368 Vbatt
FLAG 544 144 Vbatt
FLAG 544 336 Vbatt
FLAG -96 16 Vbatt
FLAG -112 304 Vbatt
SYMBOL 74hct14.i -192 96 R0
SYMATTR InstName U1
SYMBOL 74hct14.i -32 96 R0
SYMATTR InstName U2
SYMBOL diode -64 48 R270
WINDOW 0 32 32 VTop 0
WINDOW 3 0 32 VBottom 0
SYMATTR InstName D1
SYMATTR Value 1N4148
SYMBOL cap 80 48 R0
WINDOW 3 28 51 Left 0
SYMATTR Value 50n
SYMATTR InstName C1
SYMBOL cap 80 176 R0
WINDOW 3 24 49 Left 0
SYMATTR Value 50n
SYMATTR InstName C2
SYMBOL cap -304 160 R0
SYMATTR InstName C3
SYMATTR Value 10n
SYMBOL res -128 48 R90
WINDOW 0 0 56 VBottom 0
WINDOW 3 32 56 VTop 0
SYMATTR InstName R1
SYMATTR Value 5k
SYMBOL diode 176 48 R270
WINDOW 0 32 32 VTop 0
WINDOW 3 0 32 VBottom 0
SYMATTR InstName D3
SYMATTR Value 1N4148
SYMBOL cap 336 48 R0
WINDOW 3 28 48 Left 0
SYMATTR Value 100n
SYMATTR InstName C4
SYMBOL cap 336 176 R0
WINDOW 3 19 50 Left 0
SYMATTR Value 100n
SYMATTR InstName C5
SYMBOL 74hct14.i 208 96 R0
SYMATTR InstName U3
SYMBOL diode 432 48 R270
WINDOW 0 32 32 VTop 0
WINDOW 3 0 32 VBottom 0
SYMATTR InstName D6
SYMATTR Value 1N4148
SYMBOL cap 528 80 R0
WINDOW 3 37 36 Left 0
SYMATTR InstName C6
SYMATTR Value 30n
SYMBOL diode -64 288 R270
WINDOW 0 32 32 VTop 0
WINDOW 3 0 32 VBottom 0
SYMATTR InstName D2
SYMATTR Value 1N4148
SYMBOL diode 160 288 R270
WINDOW 0 32 32 VTop 0
WINDOW 3 0 32 VBottom 0
SYMATTR InstName D4
SYMATTR Value 1N4148
SYMBOL diode 448 288 R270
WINDOW 0 32 32 VTop 0
WINDOW 3 0 32 VBottom 0
SYMATTR InstName D7
SYMATTR Value 1N4148
SYMBOL cap 528 272 R0
WINDOW 0 38 26 Left 0
WINDOW 3 34 51 Left 0
SYMATTR InstName C7
SYMATTR Value 30n
SYMBOL res 432 128 R0
SYMATTR InstName R3
SYMATTR Value 50k
SYMBOL voltage 368 352 R0
WINDOW 123 0 0 Left 0
WINDOW 39 0 0 Left 0
SYMATTR InstName V1
SYMATTR Value 12
TEXT -304 312 Left 0 !.tran 1m uic
