Version 4
SHEET 1 1608 1700
WIRE 464 -272 416 -272
WIRE 672 -272 544 -272
WIRE 800 -272 672 -272
WIRE 848 -272 800 -272
WIRE 672 -208 672 -272
WIRE 672 -208 592 -208
WIRE 672 -192 672 -208
WIRE 592 -160 592 -208
WIRE 640 -160 592 -160
WIRE 800 -144 800 -272
WIRE 672 0 672 -128
WIRE 800 0 800 -80
WIRE -144 128 -336 128
WIRE 64 128 -64 128
WIRE 208 128 64 128
WIRE 256 128 208 128
WIRE 64 192 64 128
WIRE 64 192 -16 192
WIRE 64 208 64 192
WIRE 208 224 208 128
WIRE -336 240 -336 128
WIRE -16 240 -16 192
WIRE 32 240 -16 240
WIRE -336 400 -336 320
WIRE 64 400 64 272
WIRE 208 400 208 288
FLAG 64 400 0
FLAG -336 400 0
FLAG 256 128 2v5_a
IOPIN 256 128 Out
FLAG 672 0 0
FLAG 848 -272 1V25
IOPIN 848 -272 Out
FLAG -336 128 v1
FLAG 416 -272 v1
FLAG 800 0 0
FLAG 208 400 0
SYMBOL res -160 144 R270
WINDOW 0 32 56 VTop 2
WINDOW 3 0 56 VBottom 2
SYMATTR InstName R1
SYMATTR Value 1k
SYMBOL voltage -336 224 R0
WINDOW 123 24 132 Left 2
WINDOW 39 0 0 Left 2
SYMATTR Value2 AC 1
SYMATTR InstName V1
SYMATTR Value PULSE(12.5 0 10u 1n 1n 5m 10m)
SYMBOL res 448 -256 R270
WINDOW 0 32 56 VTop 2
WINDOW 3 0 56 VBottom 2
SYMATTR InstName R2
SYMATTR Value 1k
SYMBOL cap 784 -144 R0
SYMATTR InstName C6
SYMATTR Value 100p
SYMBOL cap 192 224 R0
SYMATTR InstName C7
SYMATTR Value 100p
SYMBOL addon\\References\\tl431 48 208 R0
SYMATTR InstName U1
SYMBOL addon\\References\\ZR431L 656 -192 R0
SYMATTR InstName U3
TEXT -344 -208 Left 2 !.op
TEXT -344 -176 Left 2 ;.dc V1 -10 12.5 0.01
TEXT -344 -112 Left 2 !.tran 0 10m 0 1u
TEXT -344 -48 Left 2 ;.noise v(2v5a) v1 dec 100 10 10k
TEXT -344 -144 Left 2 ;.step TEMP 0 100 5
TEXT -344 -80 Left 2 ;.ac dec 100 1k 10MEG
TEXT 592 -328 Left 2 ;Behaviour model from TI
TEXT -48 80 Left 2 ;Behaviour model from analog@ieee.org
TEXT -344 -400 Left 2 ;TL431 Test Schematic\nHelmut Sennewald  5/26/2004
