Version 4
SHEET 1 1208 904
WIRE 160 160 160 144
WIRE -256 192 -272 192
WIRE 112 192 -256 192
WIRE -272 224 -272 192
WIRE 112 224 64 224
WIRE 64 240 64 224
WIRE 352 288 240 288
WIRE 400 288 352 288
WIRE -272 336 -272 304
WIRE 64 336 64 320
WIRE 112 336 64 336
WIRE 352 336 352 288
WIRE 112 368 64 368
WIRE 208 368 208 352
WIRE 160 416 160 400
WIRE -272 448 -272 416
WIRE 64 448 64 368
WIRE 64 448 -272 448
WIRE 352 448 352 416
WIRE -272 480 -272 448
WIRE -272 592 -272 560
WIRE 320 592 320 576
WIRE 432 592 432 576
WIRE -64 688 -64 672
WIRE 48 688 48 672
WIRE 320 688 320 672
WIRE 432 688 432 672
FLAG 160 144 VDD
FLAG 208 368 VREF
FLAG 432 688 0
FLAG -64 688 0
FLAG 432 576 VDD
FLAG -64 592 VBIAS
FLAG 400 288 VOUT1
FLAG -256 192 VIN
FLAG 48 688 0
FLAG 48 592 VREF
FLAG -272 592 VBIAS
FLAG 320 688 0
FLAG 320 576 VSS
FLAG 160 416 VSS
FLAG 352 448 0
SYMBOL voltage 432 576 R0
SYMATTR InstName V1
SYMATTR Value 5
SYMBOL voltage -64 576 R0
SYMATTR InstName V2
SYMATTR Value 2V
SYMBOL res 80 336 R180
WINDOW 0 36 76 Left 2
WINDOW 3 36 40 Left 2
SYMATTR InstName RG
SYMATTR Value 500
SYMBOL voltage -272 320 R0
WINDOW 3 39 57 Left 2
WINDOW 123 39 83 Left 2
WINDOW 39 24 44 Left 2
SYMATTR Value SINE(0mV 100uV 1kHz)
SYMATTR Value2 AC 1
SYMATTR InstName V3
SYMBOL voltage 48 576 R0
SYMATTR InstName V4
SYMATTR Value 1
SYMBOL res -288 464 R0
SYMATTR InstName R1
SYMATTR Value 10K
SYMBOL voltage 320 576 R0
SYMATTR InstName V5
SYMATTR Value 0
SYMBOL res 336 320 R0
SYMATTR InstName R2
SYMATTR Value 1e6
SYMBOL res -288 208 R0
SYMATTR InstName R3
SYMATTR Value 10
SYMBOL addon\\Opamps\\Instrumentation\\ina118 128 272 R0
SYMATTR InstName U1
TEXT -104 120 Left 2 ;Preamp: G=100
TEXT -288 -128 Left 2 !.op
TEXT -288 -176 Left 2 ;.include ina118e.mod
TEXT -248 744 Left 2 ;VBIAS,VREF for common mode range INA118
TEXT -248 776 Left 2 ;(see datasheet fig. p. 4)
TEXT -104 160 Left 2 ;G=1+50000/Rg
TEXT -288 -104 Left 2 !.step V4 1 2  .1
TEXT 72 -96 Left 2 !.options itl1=500
TEXT 432 -32 Left 2 ;.options itl6=100
TEXT 72 -64 Left 2 !.options gmin=1e-10
TEXT 72 -32 Left 2 !.options reltol=0.003
TEXT 80 -152 Left 2 ;Control Panle -> SPICE  <Reset to Default Values>\nControl Panel -> SPICE -> Solver: Alternate
TEXT -288 -64 Left 2 ;.tran 0 10m 0 10u
TEXT -288 -40 Left 2 !.options plotwinsize=0
TEXT 48 -232 Left 2 ;Settings for Convergence
TEXT 48 -200 Left 2 ;Watch the additional resistor R2 and R3.
TEXT -288 -208 Left 2 ;.lib ina118.mod
TEXT 336 200 Left 2 ;change to INA118E
TEXT -288 8 Left 2 ;.ac dec 100 1 100k
LINE Normal 330 199 266 199
LINE Normal 275 195 266 199
LINE Normal 274 203 266 199
RECTANGLE Normal 640 0 32 -256
