Version 4
SHEET 1 880 708
WIRE 464 -336 64 -336
WIRE 480 -336 464 -336
WIRE 224 -256 128 -256
WIRE 352 -256 320 -256
WIRE 464 -256 464 -336
WIRE 464 -256 352 -256
WIRE 352 -208 352 -256
WIRE 352 -208 320 -208
WIRE 464 -144 464 -256
WIRE -16 -128 -64 -128
WIRE 128 -128 128 -256
WIRE 128 -128 -16 -128
WIRE 160 -128 128 -128
WIRE 272 -128 272 -192
WIRE 272 -128 256 -128
WIRE 320 -128 272 -128
WIRE -64 -112 -64 -128
WIRE 272 -112 272 -128
WIRE 352 -80 352 -208
WIRE 128 -64 128 -128
WIRE 64 -48 64 -336
WIRE 96 -48 64 -48
WIRE 208 -32 208 -64
WIRE 208 -32 160 -32
WIRE 272 -32 208 -32
WIRE -64 -16 -64 -32
WIRE 96 -16 80 -16
WIRE 16 16 -16 16
WIRE 80 16 80 -16
WIRE 80 16 16 16
WIRE 352 16 352 -16
WIRE 464 16 464 -16
WIRE 464 16 352 16
WIRE 544 16 544 -48
WIRE 128 64 128 0
WIRE 464 64 464 16
WIRE -16 128 -16 96
FLAG -16 128 0
FLAG 128 64 0
FLAG 480 -336 VOUT
IOPIN 480 -336 Out
FLAG 16 16 in
FLAG 464 64 0
FLAG 544 16 out1
IOPIN 544 16 Out
FLAG -64 -16 0
FLAG -16 -128 ALIM
SYMBOL voltage -64 -128 R0
WINDOW 123 0 0 Left 0
WINDOW 39 0 0 Left 0
WINDOW 0 26 34 Left 0
WINDOW 3 31 60 Left 0
SYMATTR InstName V1
SYMATTR Value 15
SYMBOL OpAmp.Add\\ua741 128 -96 R0
SYMATTR InstName U1
SYMBOL npn 160 -64 R270
SYMATTR InstName Q1
SYMATTR Value 2N2222
SYMBOL voltage -16 0 R0
WINDOW 123 0 0 Left 0
WINDOW 39 0 0 Left 0
WINDOW 0 26 34 Left 0
WINDOW 3 31 60 Left 0
SYMATTR InstName V2
SYMATTR Value PULSE(0 12 0 1n 1n 150m 300m)
SYMBOL npn 224 -192 R270
SYMATTR InstName Q2
SYMATTR Value Q2N3055
SYMBOL moteurs\\mcc 464 -80 R0
SYMATTR SpiceModel mcc_12V_2.5A
SYMATTR InstName U2
SYMBOL schottky 368 -16 R180
WINDOW 0 24 72 Left 0
WINDOW 3 24 0 Left 0
SYMATTR InstName D1
SYMATTR Value MBR735
SYMATTR Description Diode
SYMATTR Type diode
SYMBOL res 256 -128 R0
SYMATTR InstName R1
SYMATTR Value 10k
SYMBOL res 304 -224 R0
SYMATTR InstName R2
SYMATTR Value 100
TEXT 128 120 Left 0 !;dc V2 0 12 0.1
TEXT 32 104 Left 0 !.tran 300m
