Version 4
SHEET 1 1004 680
WIRE 384 -64 224 -64
WIRE 480 -64 384 -64
WIRE 560 -64 480 -64
WIRE 384 -48 384 -64
WIRE 224 0 224 -64
WIRE 496 48 464 48
WIRE 560 48 560 -64
WIRE 496 80 496 48
WIRE 384 96 384 80
WIRE 224 224 224 64
WIRE 384 224 384 176
WIRE 384 224 224 224
WIRE 384 304 384 224
WIRE 240 384 240 352
WIRE 336 384 240 384
WIRE 240 480 240 464
FLAG 240 480 0
FLAG 240 352 in
FLAG 496 80 out1
FLAG 560 128 0
FLAG 384 400 0
FLAG 480 -64 VCC
SYMBOL voltage 240 368 R0
WINDOW 123 26 118 Left 0
WINDOW 39 0 0 Left 0
WINDOW 3 23 95 Left 0
WINDOW 0 32 59 Left 0
SYMATTR Value PULSE(0 12 0 1n 1n 50u 100u 1000)
SYMATTR InstName V1
SYMBOL voltage 560 32 R0
WINDOW 123 0 0 Left 0
WINDOW 39 0 0 Left 0
SYMATTR InstName V2
SYMATTR Value 12
SYMBOL schottky 240 64 R180
WINDOW 0 24 72 Left 0
WINDOW 3 24 0 Left 0
SYMATTR InstName D1
SYMATTR Value MBR735
SYMATTR Description Diode
SYMATTR Type diode
SYMBOL nmos 336 304 R0
SYMATTR InstName M1
SYMATTR Value AO6408
SYMBOL moteurs\\mcc 384 16 R0
SYMATTR SpiceModel mcc_12V_2.5A
SYMATTR InstName U2
SYMBOL ind 368 80 R0
SYMATTR InstName L1
SYMATTR Value 2m
TEXT 560 224 Left 0 !.tran 300m
