Version 4
SHEET 1 1272 1292
WIRE -544 128 -672 128
WIRE -768 144 -1072 144
WIRE -768 160 -768 144
WIRE -736 160 -768 160
WIRE -624 176 -672 176
WIRE -544 176 -544 128
WIRE -816 224 -880 224
WIRE -784 224 -816 224
WIRE -736 224 -784 224
WIRE -816 256 -816 224
WIRE -736 256 -752 256
WIRE -1072 272 -1072 224
WIRE -816 352 -816 320
WIRE -752 352 -752 256
WIRE -752 352 -816 352
WIRE -688 352 -752 352
WIRE -752 368 -752 352
WIRE -1072 416 -1120 416
WIRE -992 416 -1072 416
WIRE -864 416 -912 416
WIRE -816 416 -864 416
WIRE -864 448 -864 416
WIRE -560 448 -592 448
WIRE -528 448 -560 448
WIRE -1072 480 -1072 416
WIRE -864 544 -864 528
WIRE -752 544 -752 464
FLAG -752 544 0
FLAG -864 544 0
FLAG -1120 416 in
IOPIN -1120 416 In
FLAG -624 256 0
FLAG -544 256 0
FLAG -544 128 VOUT1
FLAG -624 176 VOUT2
FLAG -688 352 VCE
FLAG -784 224 12V
FLAG -1072 272 0
FLAG -528 528 0
FLAG -560 448 12V
FLAG -1072 560 0
SYMBOL npn -816 368 R0
SYMATTR InstName Q7
SYMBOL res -880 432 R0
SYMATTR InstName R20
SYMATTR Value 1k
SYMBOL res -896 400 R90
WINDOW 0 0 56 VBottom 0
WINDOW 3 32 56 VTop 0
SYMATTR InstName R22
SYMATTR Value 1k
SYMBOL res -640 160 R0
SYMATTR InstName R24
SYMATTR Value 100
SYMBOL res -560 160 R0
SYMATTR InstName R25
SYMATTR Value 100
SYMBOL voltage -1072 128 R0
WINDOW 0 36 49 Left 0
WINDOW 3 32 77 Left 0
WINDOW 123 0 0 Left 0
WINDOW 39 0 0 Left 0
SYMATTR InstName V10
SYMATTR Value SINE(0 310 50)
SYMBOL voltage -528 432 R0
WINDOW 0 36 49 Left 0
WINDOW 3 32 77 Left 0
WINDOW 123 0 0 Left 0
WINDOW 39 0 0 Left 0
SYMATTR InstName V1
SYMATTR Value 12
SYMBOL voltage -1072 464 R0
WINDOW 0 36 49 Left 0
WINDOW 3 15 131 Left 0
WINDOW 123 0 0 Left 0
WINDOW 39 0 0 Left 0
SYMATTR InstName V2
SYMATTR Value PULSE(0 5 20m 1n 1n 80m 200m)
SYMBOL Magnetic\\rly_spdt -704 176 R0
SYMATTR InstName U1
SYMBOL diode -800 320 R180
WINDOW 0 24 72 Left 0
WINDOW 3 24 0 Left 0
SYMATTR InstName D1
SYMATTR Value 1N4148
TEXT -1200 616 Left 0 !.tran 300m
