Version 4
SHEET 1 880 680
WIRE -368 32 -368 16
WIRE -368 48 -368 32
WIRE 48 80 48 48
WIRE 128 80 128 48
WIRE -368 144 -368 128
WIRE -160 176 -256 176
WIRE 0 176 -160 176
WIRE 256 176 176 176
WIRE 272 176 256 176
WIRE 272 192 272 176
WIRE -352 224 -352 208
WIRE -352 240 -352 224
WIRE 0 240 -80 240
WIRE 272 288 272 272
WIRE -256 304 -256 176
WIRE 0 304 -256 304
WIRE 224 304 176 304
WIRE 224 320 224 304
WIRE 256 320 224 320
WIRE 272 320 256 320
WIRE -352 336 -352 320
WIRE 272 336 272 320
WIRE -256 416 -256 304
WIRE 272 432 272 416
WIRE 64 448 64 416
WIRE -256 512 -256 496
FLAG -352 336 0
FLAG -256 512 0
FLAG -368 144 0
FLAG -352 224 VCC1
FLAG -368 32 VCC2
FLAG 48 48 VCC1
FLAG 128 48 VCC2
FLAG 272 288 0
FLAG 272 432 0
FLAG 256 176 out1
FLAG 256 320 out2
FLAG -160 176 in
FLAG 64 448 0
FLAG -80 240 0
SYMBOL Misc\\l293 208 208 R0
SYMATTR InstName U1
SYMBOL voltage -256 400 R0
WINDOW 123 0 0 Left 0
WINDOW 39 0 0 Left 0
SYMATTR InstName V1
SYMATTR Value PULSE(0 5 0 1n 1n 4u 8u)
SYMBOL voltage -352 224 R0
WINDOW 123 0 0 Left 0
WINDOW 39 0 0 Left 0
SYMATTR InstName V2
SYMATTR Value 5
SYMBOL voltage -368 32 R0
WINDOW 123 0 0 Left 0
WINDOW 39 0 0 Left 0
SYMATTR InstName V3
SYMATTR Value 12
SYMBOL res 256 176 R0
SYMATTR InstName R1
SYMATTR Value 10
SYMBOL res 256 320 R0
SYMATTR InstName R2
SYMATTR Value 10
TEXT -412 536 Left 0 !.tran 8u
