Version 4
SHEET 1 1340 680
WIRE 464 -288 432 -288
WIRE 496 -288 464 -288
WIRE 432 -224 432 -288
WIRE -576 -48 -800 -48
WIRE 224 -16 48 -16
WIRE -800 0 -800 -48
WIRE 224 0 224 -16
WIRE 496 16 464 16
WIRE 624 16 576 16
WIRE 352 32 336 32
WIRE 464 32 464 16
WIRE 464 32 432 32
WIRE 48 48 48 -16
WIRE -576 64 -576 -48
WIRE -576 64 -656 64
WIRE -480 64 -576 64
WIRE -16 80 -192 80
WIRE 224 96 224 80
WIRE -16 112 -128 112
WIRE -800 128 -800 80
WIRE 512 128 512 96
WIRE 464 144 464 32
WIRE 480 144 464 144
WIRE -656 160 -656 144
WIRE -608 160 -656 160
WIRE -576 160 -608 160
WIRE -480 160 -480 144
WIRE -432 160 -480 160
WIRE -192 160 -192 80
WIRE -192 160 -432 160
WIRE 624 160 624 16
WIRE 624 160 544 160
WIRE -656 176 -656 160
WIRE -480 176 -480 160
WIRE 224 176 176 176
WIRE 240 176 224 176
WIRE 480 176 240 176
WIRE 224 208 224 176
WIRE 512 224 512 192
WIRE -128 240 -128 112
WIRE -16 240 -128 240
WIRE 144 256 112 256
WIRE -480 272 -480 256
WIRE -272 272 -320 272
WIRE -16 272 -272 272
WIRE -656 304 -656 256
WIRE 48 336 48 304
WIRE 224 336 224 288
FLAG 48 336 0
FLAG 224 96 0
FLAG 224 336 0
FLAG -800 128 0
FLAG 240 176 out
IOPIN 240 176 Out
FLAG -656 304 0
FLAG -480 272 0
FLAG -432 160 V1
FLAG -608 160 V2
FLAG -272 272 V2
FLAG 512 96 12V
FLAG 512 224 0
FLAG 336 32 0
FLAG 432 -144 0
FLAG 464 -288 12V
FLAG 144 256 0
SYMBOL res 208 192 R0
SYMATTR InstName R1
SYMATTR Value 1k
SYMATTR SpiceLine tol=1 pwr=0.1
SYMBOL voltage -800 -16 R0
WINDOW 3 13 117 Left 2
WINDOW 123 31 81 Left 2
WINDOW 39 0 0 Left 2
SYMATTR Value 2.5
SYMATTR InstName V1
SYMBOL INA155 32 176 R0
SYMATTR InstName U1
SYMBOL voltage 224 -16 R0
WINDOW 3 35 84 Left 2
WINDOW 123 31 81 Left 2
WINDOW 39 0 0 Left 2
SYMATTR Value 5
SYMATTR InstName V2
SYMBOL PT100 -640 160 R180
WINDOW 3 44 -5 Left 2
WINDOW 38 44 -26 Left 2
SYMATTR InstName U2
SYMATTR Value ""
SYMBOL res -672 160 R0
SYMATTR InstName R2
SYMATTR Value 10k
SYMBOL res -496 160 R0
SYMATTR InstName R7
SYMATTR Value 10k
SYMBOL res -496 48 R0
SYMATTR InstName R8
SYMATTR Value 100
SYMBOL res 480 32 R270
WINDOW 0 32 56 VTop 2
WINDOW 3 0 56 VBottom 2
SYMATTR InstName R3
SYMATTR Value 20k
SYMBOL res 448 16 R90
WINDOW 0 0 56 VBottom 2
WINDOW 3 32 56 VTop 2
SYMATTR InstName R4
SYMATTR Value 1k
SYMBOL Opamps\\opamp2 512 96 R0
SYMATTR InstName U3
SYMATTR Value LM358/NS
SYMBOL voltage 432 -240 R0
WINDOW 3 13 117 Left 2
WINDOW 123 31 81 Left 2
WINDOW 39 0 0 Left 2
SYMATTR Value 12
SYMATTR InstName V3
TEXT -768 408 Left 2 !.step param sensT list 0 5 10 15 20 25 30 35 40 45 50
TEXT -768 432 Left 2 !.op
TEXT -768 376 Left 2 !.lib PT100.sub
TEXT -768 352 Left 2 !.include LM358.MOD
