Version 4
SHEET 1 1044 680
WIRE 336 32 336 -96
WIRE 336 32 16 32
WIRE 480 32 336 32
WIRE 592 32 592 -96
WIRE 592 32 560 32
WIRE 592 64 592 32
WIRE -560 112 -672 112
WIRE -400 112 -480 112
WIRE -368 112 -400 112
WIRE 16 112 16 32
WIRE 336 128 336 112
WIRE 336 128 224 128
WIRE 432 128 336 128
WIRE 544 128 496 128
WIRE -368 144 -368 112
WIRE 224 144 224 128
WIRE -672 160 -672 112
WIRE -672 272 -672 240
WIRE -368 272 -368 208
WIRE -368 272 -672 272
WIRE -672 288 -672 272
WIRE 16 304 16 192
WIRE 224 304 224 208
WIRE 224 304 16 304
WIRE 592 304 592 128
WIRE 592 304 224 304
WIRE 16 320 16 304
FLAG 16 320 0
FLAG -672 288 0
FLAG 336 -96 A
IOPIN 336 -96 Out
FLAG 592 -96 B
IOPIN 592 -96 Out
FLAG -400 112 POWER
SYMBOL voltage 16 96 R0
WINDOW 123 0 0 Left 2
WINDOW 39 0 0 Left 2
SYMATTR InstName V1
SYMATTR Value SINE(0 310 50)
SYMBOL res 464 48 R270
WINDOW 0 32 56 VTop 2
WINDOW 3 0 56 VBottom 2
SYMATTR InstName RLOAD
SYMATTR Value 100
SYMBOL res 352 128 R180
WINDOW 0 36 76 Left 2
WINDOW 3 36 40 Left 2
SYMATTR InstName R2
SYMATTR Value {Rdim}
SYMBOL cap 208 144 R0
SYMATTR InstName C1
SYMATTR Value 330n
SYMBOL addon\\triacs\\triac_teccor 560 64 R0
SYMATTR InstName U2
SYMATTR SpiceModel L4004L3
SYMBOL addon\\DIAC\\DB3 496 96 R90
WINDOW 0 0 32 VBottom 2
WINDOW 38 64 32 VTop 2
SYMATTR InstName U1
SYMBOL res -464 96 R90
WINDOW 0 0 56 VBottom 2
WINDOW 3 32 56 VTop 2
SYMATTR InstName R1
SYMATTR Value 50k
SYMBOL cap -384 144 R0
SYMATTR InstName C2
SYMATTR Value 1µ
SYMBOL bv -672 144 R0
SYMATTR InstName B1
SYMATTR Value V=abs(V(A,B)*I(Rload))
TEXT -16 344 Left 2 !.tran 100ms
TEXT -312 -8 Left 2 !.step param Rdim list  20k 50K 70k 100k
TEXT -416 -136 Left 2 ;Dimmer
TEXT -408 -88 Left 2 ;Variation de la résistance du dimmer permettant la commande du triac .
TEXT -792 328 Left 2 ;Pour affichage de la puissance consommée dans la charge\n (valeur moyenne de la puissance consommée dans la charge)
