Version 4
SHEET 1 880 680
WIRE -96 32 -240 32
WIRE 80 32 -16 32
WIRE 256 32 80 32
WIRE -240 96 -240 32
WIRE 80 96 80 32
WIRE 256 96 256 32
WIRE -240 272 -240 176
WIRE 80 272 80 160
WIRE 80 272 -240 272
WIRE 256 272 256 160
WIRE 256 272 80 272
WIRE -240 304 -240 272
FLAG -240 304 0
SYMBOL res -112 48 R270
WINDOW 0 32 56 VTop 2
WINDOW 3 0 56 VBottom 2
SYMATTR InstName R1
SYMATTR Value 100k
SYMBOL cap 240 96 R0
SYMATTR InstName C1
SYMATTR Value .01µ
SYMBOL voltage -240 80 R0
WINDOW 123 0 0 Left 2
WINDOW 39 0 0 Left 2
SYMATTR InstName V1
SYMATTR Value SINE(0 100 50)
SYMBOL addon\\DIAC\\DB3 48 96 R0
SYMATTR InstName U1
TEXT -224 -120 Left 2 !.tran 0 .1 0 10u
