Version 4
SHEET 1 880 680
WIRE 96 64 -48 64
WIRE 288 64 176 64
WIRE -48 144 -48 64
WIRE 288 144 288 64
WIRE -48 288 -48 224
WIRE 288 288 288 208
FLAG -48 288 0
FLAG 288 288 0
SYMBOL voltage -48 128 R0
WINDOW 123 0 0 Left 2
WINDOW 39 0 0 Left 2
SYMATTR InstName V1
SYMATTR Value SINE(0 20 1k)
SYMBOL res 80 80 R270
WINDOW 0 32 56 VTop 2
WINDOW 3 0 56 VBottom 2
SYMATTR InstName R1
SYMATTR Value 1k
SYMBOL addon\\DIAC\\DIAC 256 144 R0
SYMATTR InstName U1
SYMATTR Value Vk=5
TEXT -80 312 Left 2 !.tran 5m
