Version 4
SHEET 1 1124 680
WIRE 176 -304 32 -304
WIRE 304 -304 176 -304
WIRE 304 -288 304 -304
WIRE 176 -272 176 -304
WIRE 32 -256 32 -304
WIRE 176 -176 176 -208
WIRE 304 -176 304 -208
WIRE 304 -176 176 -176
WIRE 304 -160 304 -176
WIRE 32 -96 32 -256
WIRE 160 -16 96 -16
WIRE 224 -16 160 -16
WIRE 256 -16 224 -16
WIRE 160 0 160 -16
WIRE 32 96 32 64
WIRE 160 96 160 80
WIRE 160 96 32 96
WIRE 256 112 256 -16
WIRE 32 128 32 96
WIRE 32 224 32 192
WIRE 176 224 32 224
WIRE 256 224 256 192
WIRE 256 224 176 224
WIRE 32 272 32 224
WIRE 32 384 32 352
FLAG 304 -160 0
FLAG 32 384 0
DATAFLAG 32 -256 ""
DATAFLAG 224 -16 ""
DATAFLAG 32 96 ""
DATAFLAG 176 224 ""
SYMBOL voltage 304 -304 R0
WINDOW 123 0 0 Left 2
WINDOW 39 0 0 Left 2
SYMATTR InstName V3
SYMATTR Value 5V
SYMBOL cap 160 -272 R0
SYMATTR InstName C6
SYMATTR Value 100n
SYMBOL res 144 -16 R0
SYMATTR InstName R1
SYMATTR Value 6.81k
SYMATTR SpiceLine tol=0.1 pwr=0.1
SYMBOL res 240 96 R0
SYMATTR InstName R2
SYMATTR Value 1T
SYMATTR SpiceLine tol=0.1 pwr=0.1
SYMBOL diode 16 128 R0
SYMATTR InstName D1
SYMATTR Value 1N4148
SYMBOL res 16 256 R0
SYMATTR InstName R4
SYMATTR Value 10k
SYMATTR SpiceLine tol=0.001 pwr=0.010
SYMBOL addon\\References\\LM334 32 -16 R0
SYMATTR InstName U1
TEXT 16 -400 Left 2 !.STEP TEMP  27 77
TEXT 16 -376 Left 2 !.op
TEXT 248 -400 Left 2 ;Iset = 227uV*T/R1\nIset = 0.0681V/R @27°C, 300K
TEXT 272 200 Left 2 ;omitted
TEXT -16 -440 Left 2 ;The LM334 should be normally used for currents >=10uA.
TEXT 112 256 Left 2 ;R2=10*R1 is recommended\nfor temperature compensation
