Version 4
SHEET 1 1248 680
WIRE 512 -176 256 -176
WIRE 832 -176 512 -176
WIRE 1120 -176 832 -176
WIRE 512 -128 512 -176
WIRE 832 -128 832 -176
WIRE 1120 -128 1120 -176
WIRE 256 -16 256 -176
WIRE 512 0 512 -48
WIRE 560 0 512 0
WIRE 832 0 832 -48
WIRE 880 0 832 0
WIRE 912 0 880 0
WIRE 1120 0 1120 -48
WIRE 1168 0 1120 0
WIRE -16 64 -128 64
WIRE 512 80 512 0
WIRE 832 80 832 0
WIRE 1120 80 1120 0
WIRE -128 96 -128 64
WIRE 464 112 432 112
WIRE 784 112 752 112
WIRE 1072 112 1040 112
WIRE -128 224 -128 176
WIRE 256 224 256 64
WIRE 512 224 512 144
WIRE 832 224 832 144
WIRE 1120 224 1120 144
FLAG -128 224 0
FLAG -16 64 TEMP1
FLAG 432 112 TEMP1
FLAG 560 0 V135
FLAG 512 224 0
FLAG 752 112 TEMP1
FLAG 880 0 V235
FLAG 832 224 0
FLAG 1040 112 TEMP1
FLAG 1168 0 V335
FLAG 1120 224 0
FLAG 256 224 0
SYMBOL voltage -128 80 R0
WINDOW 123 0 0 Left 2
WINDOW 39 0 0 Left 2
SYMATTR InstName VTEMP
SYMATTR Value 23
SYMBOL res 496 -144 R0
SYMATTR InstName R1
SYMATTR Value 5k
SYMBOL Misc\\battery 256 -32 R0
WINDOW 123 0 0 Left 2
WINDOW 39 0 0 Left 2
SYMATTR InstName VBAT
SYMATTR Value 9
SYMBOL res 816 -144 R0
SYMATTR InstName R2
SYMATTR Value 5k
SYMBOL res 1104 -144 R0
SYMATTR InstName R3
SYMATTR Value 5k
SYMBOL addon\\sensors\\temperature\\LM335\\lm335 496 80 R0
SYMATTR InstName U1
SYMATTR SpiceModel lm135
SYMBOL addon\\sensors\\temperature\\LM335\\lm335 816 80 R0
SYMATTR InstName U2
SYMATTR SpiceModel lm235
SYMBOL addon\\sensors\\temperature\\LM335\\lm335 1104 80 R0
SYMATTR InstName U3
TEXT -136 -88 Left 2 !.op
TEXT -136 -40 Left 2 !.dc VTEMP 0 22.5 .5
