Version 4
SHEET 1 3552 2820
WIRE 1072 -928 1056 -928
WIRE 1216 -928 1152 -928
WIRE 1776 -896 1776 -928
WIRE 1600 -864 1584 -864
WIRE 1648 -864 1600 -864
WIRE 1216 -784 1216 -928
WIRE 1648 -784 1648 -864
WIRE 1776 -784 1776 -816
WIRE 960 -768 864 -768
WIRE 1056 -768 1056 -928
WIRE 1056 -768 1040 -768
WIRE 1072 -768 1056 -768
WIRE 1216 -752 1216 -784
WIRE 1216 -752 1136 -752
WIRE 1408 -752 1216 -752
WIRE 1072 -736 1056 -736
WIRE 1488 -736 1472 -736
WIRE 1584 -736 1568 -736
WIRE 448 -720 448 -864
WIRE 560 -720 448 -720
WIRE 768 -720 640 -720
WIRE 800 -720 768 -720
WIRE 1408 -720 1392 -720
WIRE 800 -704 800 -720
WIRE 944 -704 912 -704
WIRE 976 -704 944 -704
WIRE 1104 -688 1104 -720
WIRE 1184 -672 1168 -672
WIRE 1216 -672 1184 -672
WIRE 1440 -672 1440 -704
WIRE 1648 -640 1648 -688
WIRE 1648 -640 1504 -640
WIRE 1648 -624 1648 -640
WIRE 976 -608 976 -624
WIRE 1056 -608 1056 -736
WIRE 1056 -608 976 -608
WIRE 976 -592 976 -608
WIRE 1216 -576 1216 -592
WIRE 1296 -576 1216 -576
WIRE 1392 -576 1392 -720
WIRE 1392 -576 1376 -576
WIRE 1424 -576 1392 -576
WIRE 1504 -576 1504 -640
WIRE 448 -560 448 -720
WIRE 1216 -560 1216 -576
WIRE 1648 -528 1648 -544
WIRE 448 -496 448 -560
WIRE 544 -496 448 -496
WIRE 704 -496 624 -496
WIRE 864 -496 864 -768
WIRE 864 -496 704 -496
WIRE 448 -448 448 -496
WIRE 704 -448 704 -496
WIRE 1216 -448 1216 -480
WIRE 448 -320 448 -368
WIRE 704 -320 704 -368
WIRE 704 -320 448 -320
WIRE 448 -304 448 -320
FLAG 448 -304 0
FLAG 704 -496 ntc_B
FLAG 800 -624 0
FLAG 768 -720 NTC_H
FLAG 448 -560 5V
FLAG 1104 -688 0
FLAG 1776 -784 0
FLAG 1776 -928 12V
IOPIN 1776 -928 Out
FLAG 1104 -784 12V
IOPIN 1104 -784 Out
FLAG 976 -512 0
FLAG 1216 -784 out
FLAG 1440 -672 0
FLAG 1440 -768 12V
IOPIN 1440 -768 Out
FLAG 1216 -448 0
FLAG 1184 -672 5V
FLAG 1648 -528 0
FLAG 1600 -864 5v
FLAG 944 -704 5V
SYMBOL voltage 448 -464 R0
WINDOW 123 0 0 Left 2
WINDOW 39 0 0 Left 2
SYMATTR InstName V1
SYMATTR Value 5
SYMBOL res 640 -512 R90
WINDOW 0 0 56 VBottom 2
WINDOW 3 32 56 VTop 2
SYMATTR InstName R1
SYMATTR Value 10k
SYMBOL res 816 -608 R180
WINDOW 0 36 76 Left 2
WINDOW 3 36 40 Left 2
SYMATTR InstName R4
SYMATTR Value 10k
SYMBOL voltage 1776 -912 R0
WINDOW 123 0 0 Left 2
WINDOW 39 0 0 Left 2
SYMATTR InstName V2
SYMATTR Value 10
SYMBOL res 1056 -784 R90
WINDOW 0 0 56 VBottom 2
WINDOW 3 32 56 VTop 2
SYMATTR InstName R5
SYMATTR Value 100k
SYMBOL res 1168 -944 R90
WINDOW 0 0 56 VBottom 2
WINDOW 3 32 56 VTop 2
SYMATTR InstName R6
SYMATTR Value 200k
SYMBOL res 960 -608 R0
SYMATTR InstName R7
SYMATTR Value 150k
SYMBOL res 960 -720 R0
SYMATTR InstName R8
SYMATTR Value 150K
SYMBOL Opamps\\UniversalOpamp2 1104 -752 R0
SYMATTR InstName U1
SYMBOL Opamps\\UniversalOpamp2 1440 -736 R0
SYMATTR InstName U2
SYMBOL res 1200 -688 R0
SYMATTR InstName R9
SYMATTR Value 1k
SYMBOL res 1200 -576 R0
SYMATTR InstName R10
SYMATTR Value 1k
SYMBOL res 1392 -592 R90
WINDOW 0 0 56 VBottom 2
WINDOW 3 32 56 VTop 2
SYMATTR InstName R11
SYMATTR Value 10k
SYMBOL res 1520 -592 R90
WINDOW 0 0 56 VBottom 2
WINDOW 3 32 56 VTop 2
SYMATTR InstName R12
SYMATTR Value 100k
SYMBOL npn 1584 -784 R0
SYMATTR InstName Q1
SYMBOL res 1584 -752 R90
WINDOW 0 0 56 VBottom 2
WINDOW 3 32 56 VTop 2
SYMATTR InstName R13
SYMATTR Value 10k
SYMBOL res 1632 -640 R0
SYMATTR InstName R14
SYMATTR Value 1k
SYMBOL addon\\sensors\\temperature\\ntc\\ntc_resistor 688 -464 R0
SYMATTR InstName U3
SYMBOL addon\\sensors\\temperature\\ntc\\ntc_resistor 656 -736 R90
WINDOW 0 -8 56 VBottom 2
WINDOW 38 61 56 VTop 2
WINDOW 3 40 56 VTop 2
SYMATTR InstName U4
TEXT 504 -416 Left 2 !.OP
TEXT 488 -296 Left 2 !.STEP TEMP  0 50 1
TEXT 640 -408 Left 2 ;NTC
