Version 4
SHEET 1 1632 684
WIRE 272 64 272 48
WIRE 480 96 400 96
WIRE 704 96 560 96
WIRE 704 128 704 96
WIRE 816 128 704 128
WIRE 400 208 400 96
WIRE 496 208 400 208
WIRE 704 208 704 128
WIRE 704 208 608 208
WIRE 400 272 400 208
WIRE 400 272 368 272
WIRE 400 288 400 272
WIRE 512 288 400 288
WIRE 704 288 576 288
WIRE 704 304 704 288
WIRE 400 368 400 352
WIRE 704 368 704 352
FLAG 368 272 out1
FLAG 816 128 out2
FLAG 400 368 0
FLAG 704 368 0
FLAG 272 144 0
FLAG 272 48 Vcc
SYMBOL res 576 80 R90
WINDOW 0 0 56 VBottom 0
WINDOW 3 20 52 VTop 0
SYMATTR InstName R5
SYMATTR Value 10meg
SYMBOL cap 384 288 R0
SYMATTR InstName C1
SYMATTR Value 330p
SYMBOL cap 688 288 R0
SYMATTR InstName C2
SYMATTR Value 330p
SYMBOL voltage 272 48 R0
WINDOW 123 0 0 Left 0
WINDOW 39 0 0 Left 0
WINDOW 3 24 44 Left 0
SYMATTR Value 5
SYMATTR InstName V2
SYMBOL Misc\\xtal 576 272 R90
WINDOW 0 0 32 VBottom 0
WINDOW 3 32 32 VTop 0
SYMATTR InstName C3
SYMATTR Value 20.8f
SYMATTR SpiceLine Rser=8 Lser=8.47m Cpar=4.85p
SYMBOL res 688 192 R0
SYMATTR InstName R1
SYMATTR Value 2k
SYMBOL Dig_Add\\74XX\\HC&U\\74hcu04.i 544 160 R0
SYMATTR InstName U1
TEXT 256 408 Left 0 !.tran 0 2M 0 startup
TEXT 512 352 Left 0 ;quartz 12Mhz
