Version 4
SHEET 1 1308 684
WIRE 192 160 176 160
WIRE 240 160 192 160
WIRE 336 160 304 160
WIRE 400 160 336 160
WIRE 528 160 480 160
WIRE 560 160 528 160
WIRE 688 160 560 160
WIRE 800 160 688 160
WIRE 864 160 800 160
WIRE 1056 160 864 160
WIRE 1248 160 1056 160
WIRE 800 176 800 160
WIRE 1056 176 1056 160
WIRE 1248 176 1248 160
WIRE 560 208 560 160
WIRE 688 304 624 304
WIRE 800 304 800 256
WIRE 800 304 752 304
WIRE 624 320 624 304
WIRE 944 336 896 336
WIRE 1056 336 1056 256
WIRE 1056 336 1008 336
WIRE 1152 336 1104 336
WIRE 1248 336 1248 256
WIRE 1248 336 1216 336
WIRE 896 384 896 336
WIRE 1104 384 1104 336
WIRE 480 448 448 448
WIRE 592 448 544 448
WIRE 864 448 864 160
WIRE 864 448 672 448
WIRE 448 480 448 448
FLAG 624 320 0
FLAG 560 288 0
FLAG 688 160 IN
FLAG 896 384 0
FLAG 1104 384 0
FLAG 336 224 0
FLAG 176 224 0
FLAG 528 160 IN
FLAG 192 160 out
FLAG 448 480 0
SYMBOL voltage 560 192 R0
WINDOW 123 31 42 Left 0
WINDOW 39 0 0 Left 0
SYMATTR Value2 AC 1
SYMATTR InstName V1
SYMATTR Value ""
SYMBOL voltage 800 160 R0
WINDOW 123 0 0 Left 0
WINDOW 39 0 0 Left 0
SYMATTR InstName V3
SYMATTR Value 0
SYMBOL Misc\\xtal 752 288 R90
WINDOW 0 0 32 VBottom 0
WINDOW 3 32 32 VTop 0
SYMATTR InstName C3
SYMATTR Value 20.8f
SYMATTR SpiceLine Rser=8 Lser=8.47m Cpar=4.85p
SYMBOL Misc\\xtal 1008 320 R90
WINDOW 0 0 32 VBottom 0
WINDOW 3 32 32 VTop 0
SYMATTR InstName C1
SYMATTR Value 0.026p
SYMATTR SpiceLine Rser=10 Lser=9.75m Cpar=8.5p
SYMBOL voltage 1056 160 R0
WINDOW 123 0 0 Left 0
WINDOW 39 0 0 Left 0
SYMATTR InstName V2
SYMATTR Value 0
SYMBOL Misc\\xtal 1216 320 R90
WINDOW 0 0 32 VBottom 0
WINDOW 3 32 32 VTop 0
SYMATTR InstName C2
SYMATTR Value 0.00254p
SYMATTR SpiceLine Rser=1 Lser=9200 Cpar=1.28p
SYMBOL voltage 1248 160 R0
WINDOW 123 0 0 Left 0
WINDOW 39 0 0 Left 0
SYMATTR InstName V4
SYMATTR Value 0
SYMBOL Misc\\xtal 304 144 R90
WINDOW 0 0 32 VBottom 0
WINDOW 3 32 32 VTop 0
SYMATTR InstName C4
SYMATTR Value 20.8f
SYMATTR SpiceLine Rser=8 Lser=8.47m Cpar=4.85p
SYMBOL cap 320 160 R0
SYMATTR InstName C5
SYMATTR Value 33p
SYMBOL cap 160 160 R0
SYMATTR InstName C6
SYMATTR Value 33p
SYMBOL res 496 144 R90
WINDOW 0 0 56 VBottom 0
WINDOW 3 32 56 VTop 0
SYMATTR InstName R1
SYMATTR Value 2k
SYMBOL Misc\\xtal 544 432 R90
WINDOW 0 0 32 VBottom 0
WINDOW 3 32 32 VTop 0
SYMATTR InstName C7
SYMATTR Value 12f
SYMATTR SpiceLine Rser=100 Lser=500m Cpar=4p
SYMBOL voltage 688 448 R90
WINDOW 123 0 0 Left 0
WINDOW 39 0 0 Left 0
SYMATTR InstName V5
SYMATTR Value 0
TEXT 712 488 Left 0 !;tran 0 400u 200u startup
TEXT 144 288 Left 0 !.ac dec 1000000 11.9Meg 12.1Meg
TEXT 952 408 Left 0 ;10 MHz
TEXT 672 240 Left 0 ;12MHz
TEXT 1152 400 Left 0 ;32.768kHz
TEXT 240 88 Left 0 ;12MHz
TEXT 480 504 Left 0 ;2MHz
