Version 4
SHEET 1 1384 680
WIRE 144 -48 32 -48
WIRE 272 -48 144 -48
WIRE 288 -48 272 -48
WIRE 384 -48 368 -48
WIRE 576 -48 384 -48
WIRE 768 -48 576 -48
WIRE 896 -48 768 -48
WIRE 32 -16 32 -48
WIRE 768 -16 768 -48
WIRE 896 -16 896 -48
WIRE 272 32 272 -48
WIRE 384 32 384 -48
WIRE 32 80 32 64
WIRE 496 96 416 96
WIRE 560 96 496 96
WIRE 592 96 560 96
WIRE 768 96 768 64
WIRE 896 96 896 64
WIRE 144 144 32 144
WIRE 240 144 144 144
WIRE 560 144 560 96
WIRE 448 160 416 160
WIRE 32 176 32 144
WIRE 240 224 208 224
WIRE 448 224 416 224
WIRE 32 272 32 256
WIRE 208 272 208 224
WIRE 448 272 448 224
WIRE 560 272 560 224
FLAG 32 272 0
FLAG 32 144 5V
FLAG 208 272 0
FLAG 560 272 0
FLAG 592 96 out
IOPIN 592 96 Out
FLAG 448 272 0
FLAG 448 160 5V
FLAG 32 80 0
FLAG 32 -48 VS
FLAG 768 96 0
FLAG 896 96 0
DATAFLAG 576 -48 ""
DATAFLAG 144 -48 ""
DATAFLAG 144 144 ""
DATAFLAG 496 96 ""
SYMBOL voltage 32 160 R0
SYMATTR InstName V1
SYMATTR Value 5
SYMBOL res 272 -32 R270
WINDOW 0 32 56 VTop 2
WINDOW 3 0 56 VBottom 2
SYMATTR InstName Rs
SYMATTR Value 10m
SYMBOL res 544 128 R0
SYMATTR InstName R2
SYMATTR Value 10k
SYMBOL voltage 32 -32 R0
SYMATTR InstName V2
SYMATTR Value 12
SYMBOL res 752 -32 R0
SYMATTR InstName RL
SYMATTR Value 12
SYMBOL current 896 -16 R0
WINDOW 123 0 0 Left 2
WINDOW 39 0 0 Left 2
SYMATTR InstName IL
SYMATTR Value PULSE(0 1 100u 10n 10n 100u 200u)
SYMBOL addon\\Opamps\\Instrumentation\\INA282 320 80 R0
SYMATTR InstName U1
TEXT 8 -176 Left 2 !.op
TEXT 288 -144 Left 2 ;Is, Vs
TEXT 112 -208 Left 2 ;Vout = 5V/2 + Is*Rs*50 = 5V/2 + Vs*50
TEXT 736 -72 Left 2 ;Load
TEXT 0 -256 Left 2 !.options gmin=1e-10 abstol=1e-10 reltol=0.003
TEXT 0 -296 Left 2 !.tran 400u
LINE Normal 368 -112 288 -112
LINE Normal 352 -128 368 -112
LINE Normal 368 -112 352 -128
LINE Normal 352 -96 368 -112
