Version 4
SHEET 1 1460 692
WIRE 32 272 16 272
WIRE 80 272 32 272
WIRE 272 304 224 304
WIRE 288 304 272 304
WIRE 288 320 288 304
WIRE 368 320 288 320
WIRE 464 336 432 336
WIRE 576 336 544 336
WIRE 640 336 576 336
WIRE 704 336 640 336
WIRE 368 352 304 352
WIRE 304 368 304 352
WIRE 320 368 304 368
WIRE 576 368 576 336
WIRE 880 368 848 368
WIRE 928 368 880 368
WIRE 16 432 16 272
WIRE 576 464 576 432
WIRE 304 496 304 368
WIRE 928 496 928 368
WIRE 928 496 304 496
WIRE 16 544 16 512
FLAG 576 464 0
FLAG 16 544 0
FLAG 272 304 Ve
FLAG 880 368 Vs
FLAG 640 336 VY
FLAG 32 272 VX
SYMBOL res 560 320 R90
WINDOW 0 0 56 VBottom 2
WINDOW 3 60 58 VBottom 2
SYMATTR InstName R1
SYMATTR Value 5k
SYMBOL cap 560 368 R0
WINDOW 3 23 56 Left 2
SYMATTR Value 10n
SYMATTR InstName C1
SYMBOL voltage 16 416 R0
WINDOW 123 0 0 Left 2
WINDOW 39 0 0 Left 2
WINDOW 3 13 105 Left 2
SYMATTR Value PULSE(-0.8 0.8 0 20m 20m 0 40m)
SYMATTR InstName V2
SYMBOL modulate 704 336 R0
WINDOW 3 -50 118 Left 2
SYMATTR Value Mark=150k Space=100k
SYMATTR InstName A1
SYMBOL modulate 80 272 R0
WINDOW 3 -50 118 Left 2
SYMATTR Value Mark=150k Space=100k
SYMATTR InstName A2
SYMBOL addon\\math\\Math2 400 336 R0
SYMATTR SpiceModel x
SYMATTR InstName U1
TEXT 216 576 Left 2 !.tran 40m
