Version 4
SHEET 1 1132 680
WIRE 96 -16 0 -16
WIRE 736 -16 96 -16
WIRE 864 -16 736 -16
WIRE 1072 -16 864 -16
WIRE 1088 -16 1072 -16
WIRE 1120 -16 1088 -16
WIRE 608 0 416 0
WIRE 816 0 608 0
WIRE 864 0 864 -16
WIRE 576 32 384 32
WIRE 704 32 576 32
WIRE 736 32 736 -16
WIRE 0 48 0 -16
WIRE 96 48 96 -16
WIRE 384 48 384 32
WIRE 416 48 416 0
WIRE 576 48 576 32
WIRE 608 48 608 0
WIRE 1072 64 1072 -16
WIRE 880 80 864 80
WIRE 976 80 960 80
WIRE 320 96 256 96
WIRE 496 96 480 96
WIRE 512 96 496 96
WIRE 1072 96 1072 64
WIRE 704 128 704 32
WIRE 736 128 736 112
WIRE 736 128 704 128
WIRE 928 128 928 112
WIRE 400 144 384 144
WIRE 416 144 400 144
WIRE 592 144 576 144
WIRE 608 144 592 144
WIRE 928 144 928 128
WIRE 96 160 96 112
WIRE 160 160 96 160
WIRE 256 160 256 96
WIRE 256 160 160 160
WIRE 672 160 672 96
WIRE 672 160 256 160
WIRE 816 160 816 0
WIRE 864 160 864 80
WIRE 864 160 816 160
WIRE 896 160 864 160
WIRE 0 176 0 112
WIRE 32 176 0 176
WIRE 496 176 496 96
WIRE 496 176 32 176
WIRE 976 176 976 80
WIRE 976 176 960 176
WIRE 1008 176 976 176
WIRE 1024 176 1008 176
WIRE 0 192 0 176
WIRE 96 192 96 160
WIRE 400 192 400 144
WIRE 592 192 592 144
WIRE 736 192 736 128
WIRE 816 192 736 192
WIRE 896 192 816 192
WIRE 1072 208 1072 144
WIRE 1104 208 1072 208
WIRE 816 224 816 192
WIRE -64 240 -80 240
WIRE 192 240 160 240
WIRE 224 240 192 240
WIRE 688 240 656 240
WIRE 704 240 688 240
WIRE 1072 304 1072 208
WIRE 336 320 336 240
WIRE 704 320 336 320
WIRE -80 336 -80 240
WIRE 224 336 224 320
WIRE 224 336 -80 336
WIRE 400 352 400 288
WIRE 464 352 400 352
WIRE 592 352 592 288
WIRE 592 352 544 352
WIRE 0 368 0 288
WIRE 96 368 96 288
WIRE 96 368 80 368
WIRE 400 384 400 352
WIRE 592 384 592 352
WIRE 0 400 0 368
WIRE 96 400 96 368
WIRE 0 512 0 480
WIRE 48 512 0 512
WIRE 96 512 96 480
WIRE 96 512 48 512
WIRE 400 512 400 464
WIRE 400 512 96 512
WIRE 448 512 400 512
WIRE 592 512 592 464
WIRE 592 512 448 512
WIRE 928 512 928 208
WIRE 928 512 592 512
WIRE 1072 512 1072 384
WIRE 1072 512 928 512
WIRE 1088 512 1072 512
WIRE 1120 512 1088 512
FLAG 1104 208 0
FLAG 1088 -16 VCC
FLAG 1088 512 VEE
FLAG 48 512 VEE
FLAG 448 512 VEE
FLAG 1008 176 out
FLAG 816 304 0
FLAG 928 128 VCC
FLAG 160 160 x1
FLAG 32 176 x2
FLAG 192 240 x
FLAG 688 240 y
SYMBOL npn -64 192 R0
WINDOW 3 23 63 Left 0
SYMATTR InstName Q1
SYMATTR Value 2N2222
SYMBOL npn 160 192 M0
WINDOW 3 23 62 Left 0
SYMATTR InstName Q2
SYMATTR Value 2N2222
SYMBOL voltage 1072 48 R0
WINDOW 123 0 0 Left 0
WINDOW 39 0 0 Left 0
SYMATTR InstName V1
SYMATTR Value 10
SYMBOL voltage 1072 288 R0
WINDOW 123 0 0 Left 0
WINDOW 39 0 0 Left 0
SYMATTR InstName V2
SYMATTR Value 10
SYMBOL voltage 224 224 R0
WINDOW 123 0 0 Left 0
WINDOW 39 0 0 Left 0
WINDOW 3 -55 132 Left 0
SYMATTR InstName V4
SYMATTR Value SINE(0 5 10k)
SYMBOL current 0 400 R0
WINDOW 3 -65 49 Left 0
WINDOW 123 0 0 Left 0
WINDOW 39 0 0 Left 0
WINDOW 0 -53 27 Left 0
SYMATTR Value 1m
SYMATTR InstName I1
SYMBOL current 96 400 R0
WINDOW 3 32 54 Left 0
WINDOW 123 0 0 Left 0
WINDOW 39 0 0 Left 0
WINDOW 0 33 25 Left 0
SYMATTR Value 1m
SYMATTR InstName I2
SYMBOL res 96 352 R90
WINDOW 0 0 56 VBottom 0
WINDOW 3 25 45 VTop 0
SYMATTR InstName R1
SYMATTR Value 10k
SYMBOL diode -16 48 R0
WINDOW 0 23 62 Left 0
WINDOW 3 -71 33 Left 0
SYMATTR InstName D1
SYMATTR Value 1N914
SYMBOL diode 80 48 R0
WINDOW 0 -16 60 Left 0
WINDOW 3 33 35 Left 0
SYMATTR InstName D2
SYMATTR Value 1N914
SYMBOL npn 336 192 R0
SYMATTR InstName Q3
SYMATTR Value 2N2222
SYMBOL npn 656 192 M0
SYMATTR InstName Q4
SYMATTR Value 2N2222
SYMBOL voltage 704 224 R0
WINDOW 123 0 0 Left 0
WINDOW 39 0 0 Left 0
WINDOW 3 -63 121 Left 0
SYMATTR InstName V3
SYMATTR Value SINE(6 3 1k)
SYMBOL current 400 384 R0
WINDOW 3 -65 53 Left 0
WINDOW 123 0 0 Left 0
WINDOW 39 0 0 Left 0
WINDOW 0 -58 21 Left 0
SYMATTR Value 1m
SYMATTR InstName I3
SYMBOL current 592 384 R0
WINDOW 3 29 68 Left 0
WINDOW 123 0 0 Left 0
WINDOW 39 0 0 Left 0
WINDOW 0 34 38 Left 0
SYMATTR Value 1m
SYMATTR InstName I4
SYMBOL res 560 336 R90
WINDOW 0 41 90 VBottom 0
WINDOW 3 32 56 VTop 0
SYMATTR InstName R3
SYMATTR Value 10k
SYMBOL npn 672 48 M0
WINDOW 0 24 46 Left 0
WINDOW 3 92 99 Left 0
SYMATTR InstName Q5
SYMATTR Value 2N2222
SYMBOL npn 512 48 R0
WINDOW 0 22 46 Left 0
WINDOW 3 109 101 Left 0
SYMATTR InstName Q6
SYMATTR Value 2N2222
SYMBOL npn 480 48 M0
WINDOW 0 24 48 Left 0
WINDOW 3 126 2 Left 0
SYMATTR InstName Q7
SYMATTR Value 2N2222
SYMBOL npn 320 48 R0
WINDOW 0 22 49 Left 0
WINDOW 3 122 6 Left 0
SYMATTR InstName Q8
SYMATTR Value 2N2222
SYMBOL res 720 16 R0
SYMATTR InstName R2
SYMATTR Value 10k
SYMBOL res 848 -16 R0
WINDOW 0 36 25 Left 0
WINDOW 3 35 55 Left 0
SYMATTR InstName R4
SYMATTR Value 10k
SYMBOL OpAmp.Add\\OPAMP1_all 928 112 R0
SYMATTR InstName U1
SYMATTR SpiceModel TL082
SYMBOL res 800 208 R0
SYMATTR InstName R5
SYMATTR Value 10k
SYMBOL res 976 64 R90
WINDOW 0 42 82 VBottom 0
WINDOW 3 -17 28 VTop 0
SYMATTR InstName R6
SYMATTR Value 10k
TEXT 96 560 Left 0 !.tran 5m
